lig.pdb
 OpenBabel03051820513D

 92 95  0  0  1  0  0  0  0  0999 V2000
    0.8280    3.9720    0.3410 C   0  0  2  0  0  0  0  0  0  0  0  0
   -0.1530    3.2460   -0.4020 O   0  0  0  0  0  0  0  0  0  0  0  0
    0.4540    5.4590    0.4340 C   0  0  2  0  0  0  0  0  0  0  0  0
   -0.9010    5.6300    0.9900 N   0  0  0  0  0  0  0  0  0  0  0  0
    0.5790    6.1440   -0.9330 C   0  0  1  0  0  0  0  0  0  0  0  0
    0.3770    7.5360   -0.7810 O   0  0  0  0  0  0  0  0  0  0  0  0
    1.9730    5.8940   -1.5280 C   0  0  2  0  0  0  0  0  0  0  0  0
    2.0150    6.3960   -2.8500 O   0  0  0  0  0  0  0  0  0  0  0  0
    2.3270    4.3930   -1.5280 C   0  0  2  0  0  0  0  0  0  0  0  0
    2.1200    3.8140   -0.2400 O   0  0  0  0  0  0  0  0  0  0  0  0
    3.8070    4.2500   -1.9310 C   0  0  0  0  0  0  0  0  0  0  0  0
    4.2640    2.8730   -1.8580 O   0  0  0  0  0  0  0  0  0  0  0  0
   -1.3260   -0.8940   -0.2780 C   0  0  2  0  0  0  0  0  0  0  0  0
   -1.0550   -2.3270   -0.0470 N   0  0  0  0  0  0  0  0  0  0  0  0
   -0.4220   -0.3540   -1.3890 C   0  0  0  0  0  0  0  0  0  0  0  0
   -0.5950    1.1530   -1.5370 C   0  0  2  0  0  0  0  0  0  0  0  0
    0.2010    1.6460   -2.6680 N   0  0  0  0  0  0  0  0  0  0  0  0
   -0.1880    1.8250   -0.2050 C   0  0  2  0  0  0  0  0  0  0  0  0
   -1.1700    1.4220    0.8480 C   0  0  2  0  0  0  0  0  0  0  0  0
   -0.8040    2.0800    2.0470 O   0  0  0  0  0  0  0  0  0  0  0  0
   -1.1440   -0.0850    1.0200 C   0  0  1  0  0  0  0  0  0  0  0  0
   -2.1160   -0.5310    1.9470 O   0  0  0  0  0  0  0  0  0  0  0  0
   -1.8210    2.3030    3.0180 C   0  0  1  0  0  0  0  0  0  0  0  0
   -1.2860    1.8320    4.3720 C   0  0  2  0  0  0  0  0  0  0  0  0
   -2.3430    1.2610    5.1200 O   0  0  0  0  0  0  0  0  0  0  0  0
   -0.7540    3.1330    4.9880 C   0  0  2  0  0  0  0  0  0  0  0  0
   -0.6430    3.0670    6.4100 O   0  0  0  0  0  0  0  0  0  0  0  0
   -1.8050    4.1220    4.4690 C   0  0  2  0  0  0  0  0  0  0  0  0
   -2.0690    3.6980    3.1390 O   0  0  0  0  0  0  0  0  0  0  0  0
   -1.3410    5.5830    4.4430 C   0  0  0  0  0  0  0  0  0  0  0  0
   -1.8470    6.3090    5.5430 O   0  0  0  0  0  0  0  0  0  0  0  0
    0.4630    2.3020    6.8850 C   0  0  2  0  0  0  0  0  0  0  0  0
    0.1500    1.6170    8.2240 C   0  0  2  0  0  0  0  0  0  0  0  0
   -1.0660    0.7930    8.1220 N   0  0  0  0  0  0  0  0  0  0  0  0
    0.0390    2.6450    9.3600 C   0  0  1  0  0  0  0  0  0  0  0  0
   -0.1630    1.9530   10.5770 O   0  0  0  0  0  0  0  0  0  0  0  0
    1.3490    3.4490    9.4180 C   0  0  2  0  0  0  0  0  0  0  0  0
    1.2830    4.4430   10.4240 O   0  0  0  0  0  0  0  0  0  0  0  0
    1.6670    4.0870    8.0500 C   0  0  1  0  0  0  0  0  0  0  0  0
    1.6260    3.1190    6.9990 O   0  0  0  0  0  0  0  0  0  0  0  0
    0.7990    5.3140    7.7340 C   0  0  0  0  0  0  0  0  0  0  0  0
    1.2470    5.9850    6.5030 N   0  0  0  0  0  0  0  0  0  0  0  0
    0.8760    3.6090    1.3720 H   0  0  0  0  0  0  0  0  0  0  0  0
    1.1530    5.9340    1.1200 H   0  0  0  0  0  0  0  0  0  0  0  0
   -1.1090    6.6150    1.0680 H   0  0  0  0  0  0  0  0  0  0  0  0
   -0.9470    5.2010    1.9030 H   0  0  0  0  0  0  0  0  0  0  0  0
   -0.1870    5.7460   -1.5960 H   0  0  0  0  0  0  0  0  0  0  0  0
    0.1850    7.9080   -1.6480 H   0  0  0  0  0  0  0  0  0  0  0  0
    2.7070    6.4260   -0.9240 H   0  0  0  0  0  0  0  0  0  0  0  0
    1.3630    5.9260   -3.3750 H   0  0  0  0  0  0  0  0  0  0  0  0
    1.7090    3.8710   -2.2570 H   0  0  0  0  0  0  0  0  0  0  0  0
    3.9340    4.6130   -2.9520 H   0  0  0  0  0  0  0  0  0  0  0  0
    4.4180    4.8590   -1.2660 H   0  0  0  0  0  0  0  0  0  0  0  0
    5.2090    2.6460   -2.0950 H   0  0  0  0  0  0  0  0  0  0  0  0
   -2.3610   -0.7910   -0.6090 H   0  0  0  0  0  0  0  0  0  0  0  0
   -0.0990   -2.4450    0.2570 H   0  0  0  0  0  0  0  0  0  0  0  0
   -1.6790   -2.6760    0.6660 H   0  0  0  0  0  0  0  0  0  0  0  0
    0.6180   -0.5660   -1.1490 H   0  0  0  0  0  0  0  0  0  0  0  0
   -0.6770   -0.8390   -2.3310 H   0  0  0  0  0  0  0  0  0  0  0  0
   -1.6420    1.3480   -1.7690 H   0  0  0  0  0  0  0  0  0  0  0  0
    0.0510    2.6380   -2.7770 H   0  0  0  0  0  0  0  0  0  0  0  0
   -0.0780    1.1660   -3.5120 H   0  0  0  0  0  0  0  0  0  0  0  0
    0.8130    1.4730    0.0630 H   0  0  0  0  0  0  0  0  0  0  0  0
   -2.1580    1.6520    0.5420 H   0  0  0  0  0  0  0  0  0  0  0  0
   -0.1800   -0.2560    1.4230 H   0  0  0  0  0  0  0  0  0  0  0  0
   -2.9850   -0.3360    1.5920 H   0  0  0  0  0  0  0  0  0  0  0  0
   -2.7530    1.7890    2.7680 H   0  0  0  0  0  0  0  0  0  0  0  0
   -0.4910    1.0950    4.2500 H   0  0  0  0  0  0  0  0  0  0  0  0
   -3.0440    1.9120    5.2030 H   0  0  0  0  0  0  0  0  0  0  0  0
    0.2100    3.3790    4.5380 H   0  0  0  0  0  0  0  0  0  0  0  0
   -2.7230    4.0300    5.0500 H   0  0  0  0  0  0  0  0  0  0  0  0
   -0.2520    5.6200    4.4430 H   0  0  0  0  0  0  0  0  0  0  0  0
   -1.7050    6.0550    3.5310 H   0  0  0  0  0  0  0  0  0  0  0  0
   -2.7070    6.6710    5.3020 H   0  0  0  0  0  0  0  0  0  0  0  0
    0.6810    1.4930    6.1800 H   0  0  0  0  0  0  0  0  0  0  0  0
    0.9780    0.9430    8.4520 H   0  0  0  0  0  0  0  0  0  0  0  0
   -1.8540    1.3850    7.9050 H   0  0  0  0  0  0  0  0  0  0  0  0
   -0.9480    0.1080    7.3900 H   0  0  0  0  0  0  0  0  0  0  0  0
   -0.8050    3.3120    9.1810 H   0  0  0  0  0  0  0  0  0  0  0  0
   -0.9850    1.4610   10.5150 H   0  0  0  0  0  0  0  0  0  0  0  0
    2.1640    2.7670    9.6670 H   0  0  0  0  0  0  0  0  0  0  0  0
    2.1230    4.9080   10.4460 H   0  0  0  0  0  0  0  0  0  0  0  0
    2.6960    4.4440    8.1020 H   0  0  0  0  0  0  0  0  0  0  0  0
   -0.2430    5.0140    7.6270 H   0  0  0  0  0  0  0  0  0  0  0  0
    0.8720    6.0230    8.5590 H   0  0  0  0  0  0  0  0  0  0  0  0
    1.1720    5.3440    5.7260 H   0  0  0  0  0  0  0  0  0  0  0  0
    0.6660    6.7930    6.3280 H   0  0  0  0  0  0  0  0  0  0  0  0
   -1.5740    5.1920    0.3760 H   0  0  0  0  0  0  0  0  0  0  0  0
   -1.2040   -2.8420   -0.9020 H   0  0  0  0  0  0  0  0  0  0  0  0
    1.1810    1.4760   -2.4910 H   0  0  0  0  0  0  0  0  0  0  0  0
   -1.2290    0.3240    9.0020 H   0  0  0  0  0  0  0  0  0  0  0  0
    2.2070    6.2760    6.6080 H   0  0  0  0  0  0  0  0  0  0  0  0
  1  3  1  0  0  0  0
  1 43  1  1  0  0  0
  2 18  1  0  0  0  0
  2  1  1  0  0  0  0
  3  4  1  0  0  0  0
  3 44  1  1  0  0  0
  4 45  1  0  0  0  0
  4 46  1  0  0  0  0
  5 47  1  6  0  0  0
  5  6  1  0  0  0  0
  5  3  1  0  0  0  0
  7  9  1  0  0  0  0
  7  5  1  0  0  0  0
  7 49  1  1  0  0  0
  8  7  1  0  0  0  0
  9 51  1  6  0  0  0
  9 10  1  0  0  0  0
 10  1  1  0  0  0  0
 11 12  1  0  0  0  0
 11  9  1  0  0  0  0
 11 53  1  0  0  0  0
 13 55  1  6  0  0  0
 13 14  1  0  0  0  0
 13 21  1  0  0  0  0
 14 56  1  0  0  0  0
 14 57  1  0  0  0  0
 15 58  1  0  0  0  0
 15 13  1  0  0  0  0
 16 60  1  6  0  0  0
 16 15  1  0  0  0  0
 16 18  1  0  0  0  0
 17 90  1  0  0  0  0
 17 16  1  0  0  0  0
 18 63  1  1  0  0  0
 18 19  1  0  0  0  0
 19 64  1  6  0  0  0
 19 21  1  0  0  0  0
 19 20  1  0  0  0  0
 20 23  1  0  0  0  0
 21 65  1  1  0  0  0
 21 22  1  0  0  0  0
 23 67  1  6  0  0  0
 23 29  1  0  0  0  0
 23 24  1  0  0  0  0
 24 68  1  6  0  0  0
 24 26  1  0  0  0  0
 24 25  1  0  0  0  0
 25 69  1  0  0  0  0
 26 70  1  6  0  0  0
 26 27  1  0  0  0  0
 27 32  1  0  0  0  0
 28 26  1  0  0  0  0
 28 71  1  1  0  0  0
 29 28  1  0  0  0  0
 30 72  1  0  0  0  0
 30 28  1  0  0  0  0
 30 31  1  0  0  0  0
 32 75  1  6  0  0  0
 32 40  1  0  0  0  0
 32 33  1  0  0  0  0
 33 76  1  1  0  0  0
 33 35  1  0  0  0  0
 34 33  1  0  0  0  0
 34 91  1  0  0  0  0
 35 79  1  6  0  0  0
 35 37  1  0  0  0  0
 35 36  1  0  0  0  0
 37 81  1  1  0  0  0
 37 38  1  0  0  0  0
 38 82  1  0  0  0  0
 39 83  1  1  0  0  0
 39 37  1  0  0  0  0
 40 39  1  0  0  0  0
 41 39  1  0  0  0  0
 41 85  1  0  0  0  0
 42 92  1  0  0  0  0
 42 41  1  0  0  0  0
 48  6  1  0  0  0  0
 50  8  1  0  0  0  0
 52 11  1  0  0  0  0
 54 12  1  0  0  0  0
 59 15  1  0  0  0  0
 61 17  1  0  0  0  0
 62 17  1  0  0  0  0
 66 22  1  0  0  0  0
 73 30  1  0  0  0  0
 74 31  1  0  0  0  0
 77 34  1  0  0  0  0
 78 34  1  0  0  0  0
 80 36  1  0  0  0  0
 84 41  1  0  0  0  0
 86 42  1  0  0  0  0
 87 42  1  0  0  0  0
 88  4  1  0  0  0  0
 89 14  1  0  0  0  0
M  END
$$$$
