lig.pdb
 OpenBabel03051820513D

 42 45  0  0  1  0  0  0  0  0999 V2000
   -1.4330   16.6100   35.7700 C   0  0  2  0  0  0  0  0  0  0  0  0
   -2.1370   16.9400   37.0080 O   0  0  0  0  0  0  0  0  0  0  0  0
   -0.0410   15.9700   36.2090 C   0  0  2  0  0  0  0  0  0  0  0  0
   -0.2650   14.7390   36.9720 N   0  0  0  0  0  0  0  0  0  0  0  0
    0.7880   17.0610   37.0470 C   0  0  1  0  0  0  0  0  0  0  0  0
    2.0670   16.5370   37.4620 O   0  0  0  0  0  0  0  0  0  0  0  0
    0.9480   18.2990   36.1480 C   0  0  2  0  0  0  0  0  0  0  0  0
    1.6600   19.2660   36.8420 O   0  0  0  0  0  0  0  0  0  0  0  0
   -0.4880   18.8480   35.7180 C   0  0  2  0  0  0  0  0  0  0  0  0
   -1.2310   17.8550   35.0000 O   0  0  0  0  0  0  0  0  0  0  0  0
   -0.3870   20.0490   34.8210 C   0  0  0  0  0  0  0  0  0  0  0  0
   -1.7160   20.4610   34.4990 O   0  0  0  0  0  0  0  0  0  0  0  0
   -6.1540   16.2060   38.7680 C   0  0  2  0  0  0  0  0  0  0  0  0
   -7.5910   16.1780   38.9330 N   0  0  0  0  0  0  0  0  0  0  0  0
   -5.6650   17.6830   38.5070 C   0  0  0  0  0  0  0  0  0  0  0  0
   -4.1080   17.7400   38.3200 C   0  0  2  0  0  0  0  0  0  0  0  0
   -3.6980   19.1210   38.0740 N   0  0  0  0  0  0  0  0  0  0  0  0
   -3.6070   16.8340   37.1090 C   0  0  2  0  0  0  0  0  0  0  0  0
   -4.0640   15.3750   37.3990 C   0  0  2  0  0  0  0  0  0  0  0  0
   -3.5450   14.5870   36.2190 O   0  0  0  0  0  0  0  0  0  0  0  0
   -5.6850   15.3120   37.5250 C   0  0  1  0  0  0  0  0  0  0  0  0
   -6.2280   13.9930   37.8530 O   0  0  0  0  0  0  0  0  0  0  0  0
   -3.4130   13.2580   36.5250 C   0  0  1  0  0  0  0  0  0  0  0  0
   -2.8960   12.4590   35.4090 C   0  0  2  0  0  0  0  0  0  0  0  0
   -3.9170   12.3470   34.4700 O   0  0  0  0  0  0  0  0  0  0  0  0
   -2.3870   11.2040   36.1500 C   0  0  2  0  0  0  0  0  0  0  0  0
   -3.1390   10.0820   35.6350 O   0  0  0  0  0  0  0  0  0  0  0  0
   -2.6700   11.4690   37.5920 C   0  0  2  0  0  0  0  0  0  0  0  0
   -2.4920   12.9300   37.5520 O   0  0  0  0  0  0  0  0  0  0  0  0
   -1.5910   10.8130   38.5300 C   0  0  0  0  0  0  0  0  0  0  0  0
   -1.8390   11.0330   39.9510 O   0  0  0  0  0  0  0  0  0  0  0  0
   -2.4930    8.7740   35.6880 C   0  0  2  0  0  0  0  0  0  0  0  0
   -3.4810    7.6860   35.0140 C   0  0  2  0  0  0  0  0  0  0  0  0
   -4.7890    7.6880   35.7460 N   0  0  0  0  0  0  0  0  0  0  0  0
   -2.7610    6.2500   35.0730 C   0  0  1  0  0  0  0  0  0  0  0  0
   -1.5030    6.3650   34.3410 O   0  0  0  0  0  0  0  0  0  0  0  0
   -2.5050    5.8470   36.5950 C   0  0  2  0  0  0  0  0  0  0  0  0
   -3.8210    5.7370   37.2630 O   0  0  0  0  0  0  0  0  0  0  0  0
   -1.5540    6.9880   37.2700 C   0  0  1  0  0  0  0  0  0  0  0  0
   -2.2140    8.3380   37.1410 O   0  0  0  0  0  0  0  0  0  0  0  0
   -1.2960    6.6330   38.7720 C   0  0  0  0  0  0  0  0  0  0  0  0
   -1.3760    7.8250   39.6720 N   0  0  0  0  0  0  0  0  0  0  0  0
  1  3  1  0  0  0  0
  1  2  1  1  0  0  0
  3  4  1  1  0  0  0
  3  5  1  0  0  0  0
  5  6  1  6  0  0  0
  7  8  1  1  0  0  0
  7  5  1  0  0  0  0
  9 11  1  6  0  0  0
  9  7  1  0  0  0  0
 10  9  1  0  0  0  0
 10  1  1  0  0  0  0
 12 11  1  0  0  0  0
 13 14  1  6  0  0  0
 15 13  1  0  0  0  0
 16 17  1  6  0  0  0
 16 15  1  0  0  0  0
 18  2  1  1  0  0  0
 18 19  1  0  0  0  0
 18 16  1  0  0  0  0
 19 20  1  6  0  0  0
 19 21  1  0  0  0  0
 21 22  1  1  0  0  0
 21 13  1  0  0  0  0
 23 20  1  6  0  0  0
 23 29  1  0  0  0  0
 24 25  1  6  0  0  0
 24 26  1  0  0  0  0
 24 23  1  0  0  0  0
 26 27  1  6  0  0  0
 26 28  1  0  0  0  0
 28 30  1  1  0  0  0
 29 28  1  0  0  0  0
 30 31  1  0  0  0  0
 32 27  1  1  0  0  0
 32 40  1  0  0  0  0
 33 35  1  0  0  0  0
 33 32  1  0  0  0  0
 33 34  1  1  0  0  0
 35 36  1  6  0  0  0
 35 37  1  0  0  0  0
 37 38  1  1  0  0  0
 37 39  1  0  0  0  0
 39 41  1  1  0  0  0
 40 39  1  0  0  0  0
 41 42  1  0  0  0  0
M  END
$$$$
