2et8_lig
 OpenBabel02221317003D

 22 23  0  0  1  0  0  0  0  0999 V2000
   26.1700   17.6170   34.9800 N   0  0  0  0  0  0  0  0  0  0  0  0
   24.3210   15.2770   38.9440 N   0  0  0  0  0  0  0  0  0  0  0  0
   22.7210   10.8830   39.2210 N   0  0  0  0  0  0  0  0  0  0  0  0
   21.7370   15.4650   34.7710 O   0  0  0  0  0  0  0  0  0  0  0  0
   22.6440   16.1750   35.6500 C   0  0  2  0  0  0  0  0  0  0  0  0
   19.0770   15.8610   36.9090 N   0  0  0  0  0  0  0  0  0  0  0  0
   23.6850   17.3530   33.7180 O   0  0  0  0  0  0  0  0  0  0  0  0
   23.9610   16.5350   34.8620 C   0  0  1  0  0  0  0  0  0  0  0  0
   21.8550   14.9810   37.5480 O   0  0  0  0  0  0  0  0  0  0  0  0
   24.9210   17.2890   35.7490 C   0  0  1  0  0  0  0  0  0  0  0  0
   21.1980   12.7740   37.5500 O   0  0  0  0  0  0  0  0  0  0  0  0
   25.2540   16.4250   36.9870 C   0  0  0  0  0  0  0  0  0  0  0  0
   19.4640   13.0090   40.7530 O   0  0  0  0  0  0  0  0  0  0  0  0
   23.9240   16.1170   37.7350 C   0  0  1  0  0  0  0  0  0  0  0  0
   17.8980   14.7440   39.2120 O   0  0  0  0  0  0  0  0  0  0  0  0
   23.0240   15.2680   36.8870 C   0  0  2  0  0  0  0  0  0  0  0  0
   20.8930   14.1570   36.9760 C   0  0  1  0  0  0  0  0  0  0  0  0
   21.0300   12.7040   39.0340 C   0  0  2  0  0  0  0  0  0  0  0  0
   21.3240   11.2790   39.5470 C   0  0  0  0  0  0  0  0  0  0  0  0
   19.6140   13.0610   39.3750 C   0  0  2  0  0  0  0  0  0  0  0  0
   19.2620   14.4370   38.8890 C   0  0  1  0  0  0  0  0  0  0  0  0
   19.4370   14.4860   37.4100 C   0  0  1  0  0  0  0  0  0  0  0  0
  5  4  1  6  0  0  0
  5  8  1  0  0  0  0
  5 16  1  0  0  0  0
  8  7  1  1  0  0  0
  8 10  1  0  0  0  0
 10  1  1  6  0  0  0
 10 12  1  0  0  0  0
 11 18  1  0  0  0  0
 12 14  1  0  0  0  0
 14  2  1  6  0  0  0
 14 16  1  0  0  0  0
 16  9  1  1  0  0  0
 17  9  1  1  0  0  0
 17 11  1  0  0  0  0
 17 22  1  0  0  0  0
 18 19  1  6  0  0  0
 18 20  1  0  0  0  0
 19  3  1  0  0  0  0
 20 13  1  1  0  0  0
 20 21  1  0  0  0  0
 21 15  1  6  0  0  0
 21 22  1  0  0  0  0
 22  6  1  1  0  0  0
M  END
$$$$
