ligand
  PyMOL2.3          3D                             0

 37 40  0  0  0  0  0  0  0  0999 V2000
   -0.8960   26.5910   67.4180 C   0  0  0  0  0  0  0  0  0  0  0  0
   -1.9320   25.8150   68.2800 C   0  0  0  0  0  0  0  0  0  0  0  0
   -3.3200   25.7710   67.6130 C   0  0  0  0  0  0  0  0  0  0  0  0
   -3.7990   27.2320   67.3460 C   0  0  0  0  0  0  0  0  0  0  0  0
   -2.7780   27.9890   66.4360 C   0  0  0  0  0  0  0  0  0  0  0  0
   -3.2860   29.4790   66.1780 C   0  0  0  0  0  0  0  0  0  0  0  0
   -4.6840   29.4250   65.4950 C   0  0  0  0  0  0  0  0  0  0  0  0
   -5.6490   28.6320   66.4270 C   0  0  0  0  0  0  0  0  0  0  0  0
   -4.6550   31.6050   64.0960 C   0  0  0  0  0  0  0  0  0  0  0  0
   -1.4520   24.4460   68.5640 N   0  0  0  0  0  0  0  0  0  0  0  0
   -5.2060   30.8210   65.2470 N   0  0  0  0  0  0  0  0  0  0  0  0
   -0.5590   25.8970   66.2010 O   0  0  0  0  0  0  0  0  0  0  0  0
   -1.4500   27.9370   67.1170 O   0  0  0  0  0  0  0  0  0  0  0  0
   -5.1490   27.2770   66.6940 O   0  0  0  0  0  0  0  0  0  0  0  0
   -3.4220   30.1610   67.4180 O   0  0  0  0  0  0  0  0  0  0  0  0
   -6.9380   28.5410   65.8310 O   0  0  0  0  0  0  0  0  0  0  0  0
   -7.9910   28.1790   66.7580 C   0  0  0  0  0  0  0  0  0  0  0  0
   -9.2930   27.7400   66.0470 C   0  0  0  0  0  0  0  0  0  0  0  0
   -9.9390   28.9380   65.2790 C   0  0  0  0  0  0  0  0  0  0  0  0
  -10.2640   30.0390   66.2680 C   0  0  0  0  0  0  0  0  0  0  0  0
   -8.9470   30.4990   66.9620 C   0  0  0  0  0  0  0  0  0  0  0  0
   -9.1930   31.5970   67.9950 C   0  0  0  0  0  0  0  0  0  0  0  0
  -10.8980   31.1710   65.5500 N   0  0  0  0  0  0  0  0  0  0  0  0
   -8.3120   29.3330   67.6500 O   0  0  0  0  0  0  0  0  0  0  0  0
   -8.9570   26.6410   65.1710 O   0  0  0  0  0  0  0  0  0  0  0  0
  -11.1470   28.5130   64.6440 O   0  0  0  0  0  0  0  0  0  0  0  0
   -9.5660   31.0100   69.2180 O   0  0  0  0  0  0  0  0  0  0  0  0
    0.7490   26.0980   65.4670 C   0  0  0  0  0  0  0  0  0  0  0  0
    1.7530   25.0170   65.9530 C   0  0  0  0  0  0  0  0  0  0  0  0
    3.1170   25.1900   65.2240 C   0  0  0  0  0  0  0  0  0  0  0  0
    2.9000   25.0400   63.6980 C   0  0  0  0  0  0  0  0  0  0  0  0
    1.8940   26.1280   63.1770 C   0  0  0  0  0  0  0  0  0  0  0  0
    0.5560   25.9470   63.9250 C   0  0  0  0  0  0  0  0  0  0  0  0
    4.1950   25.1960   62.9930 N   0  0  0  0  0  0  0  0  0  0  0  0
   -0.3770   26.9670   63.4340 N   0  0  0  0  0  0  0  0  0  0  0  0
    1.9550   25.1540   67.3770 O   0  0  0  0  0  0  0  0  0  0  0  0
    4.0330   24.1780   65.6980 O   0  0  0  0  0  0  0  0  0  0  0  0
  1  2  1  0  0  0  0
  1 12  1  0  0  0  0
  1 13  1  0  0  0  0
  2  3  1  0  0  0  0
  2 10  1  0  0  0  0
  3  4  1  0  0  0  0
  4  5  1  0  0  0  0
  4 14  1  0  0  0  0
  5  6  1  0  0  0  0
  5 13  1  0  0  0  0
  6  7  1  0  0  0  0
  6 15  1  0  0  0  0
  7  8  1  0  0  0  0
  7 11  1  0  0  0  0
  8 14  1  0  0  0  0
  8 16  1  0  0  0  0
  9 11  1  0  0  0  0
 12 28  1  0  0  0  0
 16 17  1  0  0  0  0
 17 18  1  0  0  0  0
 17 24  1  0  0  0  0
 18 19  1  0  0  0  0
 18 25  1  0  0  0  0
 19 20  1  0  0  0  0
 19 26  1  0  0  0  0
 20 21  1  0  0  0  0
 20 23  1  0  0  0  0
 21 22  1  0  0  0  0
 21 24  1  0  0  0  0
 22 27  1  0  0  0  0
 28 29  1  0  0  0  0
 28 33  1  0  0  0  0
 29 30  1  0  0  0  0
 29 36  1  0  0  0  0
 30 31  1  0  0  0  0
 30 37  1  0  0  0  0
 31 32  1  0  0  0  0
 31 34  1  0  0  0  0
 32 33  1  0  0  0  0
 33 35  1  0  0  0  0
M  END
$$$$
