ligand
  PyMOL2.2          3D                             0

 26 28  0  0  0  0  0  0  0  0999 V2000
   33.1820   17.6100    8.3280 N   0  0  0  0  0  0  0  0  0  0  0  0
   34.3950   17.7380    9.1260 C   0  0  0  0  0  0  0  0  0  0  0  0
   35.1460   19.0190    8.7810 C   0  0  0  0  0  0  0  0  0  0  0  0
   34.5990   19.9240    8.1520 O   0  0  0  0  0  0  0  0  0  0  0  0
   35.3000   16.5300    8.9190 C   0  0  0  0  0  0  0  0  0  0  0  0
   35.8800   16.4200    7.5150 C   0  0  0  0  0  0  0  0  0  0  0  0
   36.9130   14.9480    7.3040 S   0  0  0  0  0  0  0  0  0  0  0  0
   38.2600   15.7610    8.2000 C   0  0  0  0  0  0  0  0  0  0  0  0
   39.5200   15.9140    7.3560 C   0  0  0  0  0  0  0  0  0  0  0  0
   40.2330   14.6910    7.3260 O   0  0  0  0  0  0  0  0  0  0  0  0
   39.1890   16.2940    5.9220 C   0  0  0  0  0  0  0  0  0  0  0  0
   39.7180   17.5650    5.6270 O   0  0  0  0  0  0  0  0  0  0  0  0
   39.8480   15.2430    5.0530 C   0  0  0  0  0  0  0  0  0  0  0  0
   40.7510   15.8510    4.1590 O   0  0  0  0  0  0  0  0  0  0  0  0
   40.5940   14.3260    6.0070 C   0  0  0  0  0  0  0  0  0  0  0  0
   36.3180   19.1790    9.1240 O   0  0  0  0  0  0  0  0  0  0  0  0
   41.6860    9.9500    3.3190 N   0  0  0  0  0  0  0  0  0  0  0  0
   42.3330   11.1680    3.2610 C   0  0  0  0  0  0  0  0  0  0  0  0
   41.9060   12.2200    4.0470 N   0  0  0  0  0  0  0  0  0  0  0  0
   40.8480   12.0660    4.8800 C   0  0  0  0  0  0  0  0  0  0  0  0
   40.1840   10.8490    4.9520 C   0  0  0  0  0  0  0  0  0  0  0  0
   40.6080    9.7850    4.1650 C   0  0  0  0  0  0  0  0  0  0  0  0
   39.9790    8.6150    4.2250 N   0  0  0  0  0  0  0  0  0  0  0  0
   39.1830   10.9740    5.8500 N   0  0  0  0  0  0  0  0  0  0  0  0
   39.1970   12.2330    6.3450 C   0  0  0  0  0  0  0  0  0  0  0  0
   40.2240   12.9220    5.7530 N   0  0  0  0  0  0  0  0  0  0  0  0
  1  2  1  0  0  0  0
  2  3  1  0  0  0  0
  2  5  1  0  0  0  0
  3  4  4  0  0  0  0
  3 16  4  0  0  0  0
  5  6  1  0  0  0  0
  6  7  1  0  0  0  0
  7  8  1  0  0  0  0
  8  9  1  0  0  0  0
  9 10  1  0  0  0  0
  9 11  1  0  0  0  0
 10 15  1  0  0  0  0
 11 12  1  0  0  0  0
 11 13  1  0  0  0  0
 13 14  1  0  0  0  0
 13 15  1  0  0  0  0
 15 26  1  0  0  0  0
 17 18  4  0  0  0  0
 18 19  4  0  0  0  0
 19 20  4  0  0  0  0
 20 21  4  0  0  0  0
 21 22  4  0  0  0  0
 17 22  4  0  0  0  0
 22 23  1  0  0  0  0
 21 24  4  0  0  0  0
 24 25  4  0  0  0  0
 20 26  4  0  0  0  0
 25 26  4  0  0  0  0
M  END
$$$$
