ligand
  PyMOL2.2          3D                             0

 10 11  0  0  0  0  0  0  0  0999 V2000
    4.0190  -20.1180   25.0390 N   0  0  0  0  0  0  0  0  0  0  0  0
    3.9240  -19.6390   26.2810 C   0  0  0  0  0  0  0  0  0  0  0  0
    2.8830  -19.6760   27.1220 N   0  0  0  0  0  0  0  0  0  0  0  0
    1.8300  -20.2830   26.5420 C   0  0  0  0  0  0  0  0  0  0  0  0
    1.7750  -20.8250   25.2720 C   0  0  0  0  0  0  0  0  0  0  0  0
    2.9420  -20.7310   24.4880 C   0  0  0  0  0  0  0  0  0  0  0  0
    3.0220  -21.2070   23.2350 N   0  0  0  0  0  0  0  0  0  0  0  0
    0.5310  -21.3740   25.0200 N   0  0  0  0  0  0  0  0  0  0  0  0
   -0.1350  -21.1660   26.1250 C   0  0  0  0  0  0  0  0  0  0  0  0
    0.5860  -20.5040   27.0830 N   0  0  0  0  0  0  0  0  0  0  0  0
  1  2  4  0  0  0  0
  2  3  4  0  0  0  0
  3  4  4  0  0  0  0
  4  5  4  0  0  0  0
  5  6  4  0  0  0  0
  1  6  4  0  0  0  0
  6  7  1  0  0  0  0
  5  8  4  0  0  0  0
  8  9  4  0  0  0  0
  4 10  4  0  0  0  0
  9 10  4  0  0  0  0
M  END
$$$$
