ligand
  PyMOL2.2          3D                             0

 22 23  0  0  0  0  0  0  0  0999 V2000
   29.1690   -3.2430  106.7290 N   0  0  0  0  0  0  0  0  0  0  0  0
   25.8730   -4.1620  106.6880 C   0  0  0  0  0  0  0  0  0  0  0  0
   26.8690   -3.2090  107.1990 O   0  0  0  0  0  0  0  0  0  0  0  0
   24.6960   -7.5950  107.8760 P   0  0  0  0  0  0  0  0  0  0  0  0
   27.8970   -3.0650  106.1750 C   0  0  0  0  0  0  0  0  0  0  0  0
   30.8710   -4.1490  107.7750 N   0  0  0  0  0  0  0  0  0  0  0  0
   27.9530   -3.6160  103.8490 O   0  0  0  0  0  0  0  0  0  0  0  0
   27.6300   -4.1030  105.1600 C   0  0  0  0  0  0  0  0  0  0  0  0
   33.6950   -3.1220  107.8860 N   0  0  0  0  0  0  0  0  0  0  0  0
   25.4600   -3.4470  104.4500 O   0  0  0  0  0  0  0  0  0  0  0  0
   26.1940   -4.3820  105.2710 C   0  0  0  0  0  0  0  0  0  0  0  0
   31.2540   -2.9300  107.3480 C   0  0  0  0  0  0  0  0  0  0  0  0
   30.1610   -1.0570  106.0780 N   0  0  0  0  0  0  0  0  0  0  0  0
   24.8880   -6.2520  107.0990 O   0  0  0  0  0  0  0  0  0  0  0  0
   25.9740   -5.4420  107.4310 C   0  0  0  0  0  0  0  0  0  0  0  0
   23.2620   -8.1990  107.5650 O   0  0  0  0  0  0  0  0  0  0  0  0
   29.5860   -4.3260  107.3860 C   0  0  0  0  0  0  0  0  0  0  0  0
   32.7410   -1.0990  107.4550 O   0  0  0  0  0  0  0  0  0  0  0  0
   32.6020   -2.3150  107.5600 C   0  0  0  0  0  0  0  0  0  0  0  0
   30.1860   -2.3430  106.6850 C   0  0  0  0  0  0  0  0  0  0  0  0
   24.8930   -7.4070  109.3310 O   0  5  0  0  0  0  0  0  0  0  0  0
   25.7690   -8.5710  107.5440 O   0  0  0  0  0  0  0  0  0  0  0  0
  1  5  1  0  0  0  0
  2 15  1  0  0  0  0
  2  3  1  0  0  0  0
  4 16  1  0  0  0  0
  4 21  1  0  0  0  0
  4 22  2  0  0  0  0
  3  5  1  0  0  0  0
  5  8  1  0  0  0  0
  6 17  4  0  0  0  0
  7  8  1  0  0  0  0
  8 11  1  0  0  0  0
  2 11  1  0  0  0  0
 10 11  1  0  0  0  0
  6 12  4  0  0  0  0
 12 20  4  0  0  0  0
  4 14  1  0  0  0  0
 14 15  1  0  0  0  0
  1 17  4  0  0  0  0
 18 19  2  0  0  0  0
  9 19  1  0  0  0  0
 12 19  1  0  0  0  0
  1 20  4  0  0  0  0
 13 20  1  0  0  0  0
M  END
$$$$
