2oe8_lig
 OpenBabel02221317003D

 37 40  0  0  1  0  0  0  0  0999 V2000
   20.2400    1.0840   53.4720 C   0  0  1  0  0  0  0  0  0  0  0  0
   19.1230    1.5190   52.4490 C   0  0  1  0  0  0  0  0  0  0  0  0
   18.5870    0.2710   51.7170 C   0  0  0  0  0  0  0  0  0  0  0  0
   19.8120   -0.3610   50.9850 C   0  0  1  0  0  0  0  0  0  0  0  0
   20.9740   -0.7930   52.0190 C   0  0  1  0  0  0  0  0  0  0  0  0
   22.2080   -1.4070   51.2950 C   0  0  1  0  0  0  0  0  0  0  0  0
   21.6960   -2.6570   50.4690 C   0  0  1  0  0  0  0  0  0  0  0  0
   20.5400   -2.1950   49.5150 C   0  0  2  0  0  0  0  0  0  0  0  0
   24.0590   -3.8010   50.4050 C   0  0  0  0  0  0  0  0  0  0  0  0
   17.9990    2.2070   53.1600 N   0  0  0  0  0  0  0  0  0  0  0  0
   22.8330   -3.3030   49.6820 N   0  0  0  0  0  0  0  0  0  0  0  0
   19.7250    0.1970   54.4730 O   0  0  0  0  0  0  0  0  0  0  0  0
   21.3730    0.3940   52.7880 O   0  0  0  0  0  0  0  0  0  0  0  0
   19.4070   -1.5470   50.2390 O   0  0  0  0  0  0  0  0  0  0  0  0
   22.7540   -0.3870   50.4570 O   0  0  0  0  0  0  0  0  0  0  0  0
   20.0500   -3.2950   48.8390 O   0  0  0  0  0  0  0  0  0  0  0  0
   19.3210   -2.9530   47.6480 C   0  0  2  0  0  0  0  0  0  0  0  0
   18.0870   -3.8740   47.4910 C   0  0  1  0  0  0  0  0  0  0  0  0
   18.4990   -5.3560   47.2340 C   0  0  2  0  0  0  0  0  0  0  0  0
   19.3770   -5.4310   45.9500 C   0  0  1  0  0  0  0  0  0  0  0  0
   20.6560   -4.5320   46.2130 C   0  0  1  0  0  0  0  0  0  0  0  0
   21.5960   -4.5100   45.0110 C   0  0  0  0  0  0  0  0  0  0  0  0
   19.7720   -6.8470   45.7020 N   0  0  0  0  0  0  0  0  0  0  0  0
   20.2080   -3.1170   46.4670 O   0  0  0  0  0  0  0  0  0  0  0  0
   17.2950   -3.7340   48.6860 O   0  0  0  0  0  0  0  0  0  0  0  0
   17.3250   -6.1200   47.0540 O   0  0  0  0  0  0  0  0  0  0  0  0
   20.8620   -4.2270   43.8490 O   0  0  0  0  0  0  0  0  0  0  0  0
   20.4080    0.2780   55.7070 C   0  0  1  0  0  0  0  0  0  0  0  0
   19.5410    1.1310   56.6880 C   0  0  1  0  0  0  0  0  0  0  0  0
   20.2970    1.2550   58.0430 C   0  0  2  0  0  0  0  0  0  0  0  0
   20.5670   -0.1530   58.6580 C   0  0  1  0  0  0  0  0  0  0  0  0
   21.4320   -1.0250   57.6700 C   0  0  0  0  0  0  0  0  0  0  0  0
   20.6560   -1.1540   56.2940 C   0  0  2  0  0  0  0  0  0  0  0  0
   21.2950   -0.0080   59.9490 N   0  0  0  0  0  0  0  0  0  0  0  0
   21.4730   -1.9770   55.3740 N   0  0  0  0  0  0  0  0  0  0  0  0
   19.3240    2.4480   56.1480 O   0  0  0  0  0  0  0  0  0  0  0  0
   19.4870    2.0260   58.9150 O   0  0  0  0  0  0  0  0  0  0  0  0
  1  2  1  0  0  0  0
  1 12  1  6  0  0  0
  1 13  1  0  0  0  0
  2  3  1  0  0  0  0
  2 10  1  1  0  0  0
  4  3  1  1  0  0  0
  4  5  1  0  0  0  0
  4 14  1  0  0  0  0
  5  6  1  0  0  0  0
  5 13  1  6  0  0  0
  6  7  1  0  0  0  0
  6 15  1  6  0  0  0
  7  8  1  0  0  0  0
  7 11  1  6  0  0  0
  8 14  1  0  0  0  0
  8 16  1  1  0  0  0
  9 11  1  0  0  0  0
 17 16  1  6  0  0  0
 17 18  1  0  0  0  0
 17 24  1  0  0  0  0
 18 19  1  0  0  0  0
 18 25  1  1  0  0  0
 19 20  1  0  0  0  0
 19 26  1  6  0  0  0
 20 21  1  0  0  0  0
 20 23  1  1  0  0  0
 21 22  1  6  0  0  0
 21 24  1  0  0  0  0
 22 27  1  0  0  0  0
 28 12  1  1  0  0  0
 28 29  1  0  0  0  0
 28 33  1  0  0  0  0
 29 30  1  0  0  0  0
 29 36  1  6  0  0  0
 30 31  1  0  0  0  0
 30 37  1  1  0  0  0
 31 32  1  0  0  0  0
 31 34  1  6  0  0  0
 32 33  1  0  0  0  0
 33 35  1  6  0  0  0
M  END
$$$$
