ligand
  PyMOL2.2          3D                             0

 22 23  0  0  0  0  0  0  0  0999 V2000
   17.4180   39.6130   64.1560 C   0  0  0  0  0  0  0  0  0  0  0  0
   24.6540   41.0370   64.8640 C   0  0  0  0  0  0  0  0  0  0  0  0
   30.2940   39.5950   66.9140 P   0  0  0  0  0  0  0  0  0  0  0  0
   19.5650   39.3350   65.1740 N   0  0  0  0  0  0  0  0  0  0  0  0
   30.3800   41.0610   66.6910 O   0  0  0  0  0  0  0  0  0  0  0  0
   24.4660   38.8880   68.2630 S   0  0  0  0  0  0  0  0  0  0  0  0
   23.1990   39.9700   68.0470 C   0  0  0  0  0  0  0  0  0  0  0  0
   18.6210   40.2280   64.7150 C   0  0  0  0  0  0  0  0  0  0  0  0
   31.2660   38.8010   66.1190 O   0  5  0  0  0  0  0  0  0  0  0  0
   23.2430   40.7000   66.9120 N   0  0  0  0  0  0  0  0  0  0  0  0
   18.7710   41.5250   64.7510 N   0  0  0  0  0  0  0  0  0  0  0  0
   30.3310   39.2850   68.3790 O   0  0  0  0  0  0  0  0  0  0  0  0
   24.3770   40.3580   66.1730 C   0  0  0  0  0  0  0  0  0  0  0  0
   19.9280   42.0770   65.2910 C   0  0  0  0  0  0  0  0  0  0  0  0
   20.0710   43.3990   65.3020 N   0  0  0  0  0  0  0  0  0  0  0  0
   25.1690   39.3930   66.7490 C   0  0  0  0  0  0  0  0  0  0  0  0
   20.9490   41.1950   65.8320 C   0  0  0  0  0  0  0  0  0  0  0  0
   26.4420   38.8270   66.2310 C   0  0  0  0  0  0  0  0  0  0  0  0
   20.7050   39.8420   65.7080 C   0  0  0  0  0  0  0  0  0  0  0  0
   27.6160   39.5410   66.7880 C   0  0  0  0  0  0  0  0  0  0  0  0
   22.1730   41.7450   66.5390 C   0  0  0  0  0  0  0  0  0  0  0  0
   28.9050   39.0960   66.3640 O   0  0  0  0  0  0  0  0  0  0  0  0
  1  8  1  0  0  0  0
  3  5  1  0  0  0  0
  3  9  1  0  0  0  0
  3 12  2  0  0  0  0
  4  8  4  0  0  0  0
  4 19  4  0  0  0  0
  6 16  4  0  0  0  0
  6  7  4  0  0  0  0
  8 11  4  0  0  0  0
  7 10  4  0  0  0  0
 10 13  4  0  0  0  0
 10 21  1  0  0  0  0
 11 14  4  0  0  0  0
  2 13  1  0  0  0  0
 14 15  1  0  0  0  0
 14 17  4  0  0  0  0
 13 16  4  0  0  0  0
 16 18  1  0  0  0  0
 17 19  4  0  0  0  0
 17 21  1  0  0  0  0
 18 20  1  0  0  0  0
 20 22  1  0  0  0  0
  3 22  1  0  0  0  0
M  END
$$$$
