ligand
  PyMOL2.2          3D                             0

 19 21  0  0  0  0  0  0  0  0999 V2000
   17.8810   28.1250   32.8280 C   0  0  0  0  0  0  0  0  0  0  0  0
   18.7190   26.9840   33.0820 O   0  0  0  0  0  0  0  0  0  0  0  0
   18.2800   29.3150   33.7070 C   0  0  0  0  0  0  0  0  0  0  0  0
   17.9530   29.0610   35.0730 O   0  0  0  0  0  0  0  0  0  0  0  0
   19.7720   29.5830   33.6520 C   0  0  0  0  0  0  0  0  0  0  0  0
   19.9720   30.9900   33.5100 O   0  0  0  0  0  0  0  0  0  0  0  0
   20.3400   29.1390   34.9810 C   0  0  0  0  0  0  0  0  0  0  0  0
   19.1330   28.9890   35.8890 C   0  0  0  0  0  0  0  0  0  0  0  0
   17.5720   26.6730   40.2430 N   0  0  0  0  0  0  0  0  0  0  0  0
   17.4370   27.9540   39.8230 C   0  0  0  0  0  0  0  0  0  0  0  0
   16.7950   28.8560   40.5950 N   0  0  0  0  0  0  0  0  0  0  0  0
   17.9310   28.3650   38.6360 N   0  0  0  0  0  0  0  0  0  0  0  0
   18.5830   27.5190   37.8130 C   0  0  0  0  0  0  0  0  0  0  0  0
   18.7620   26.2040   38.1760 C   0  0  0  0  0  0  0  0  0  0  0  0
   18.2130   25.7630   39.4820 C   0  0  0  0  0  0  0  0  0  0  0  0
   18.3460   24.5810   39.8690 O   0  0  0  0  0  0  0  0  0  0  0  0
   19.4330   25.5940   37.1840 N   0  0  0  0  0  0  0  0  0  0  0  0
   19.6610   26.5250   36.2290 C   0  0  0  0  0  0  0  0  0  0  0  0
   19.1360   27.6960   36.6240 N   0  0  0  0  0  0  0  0  0  0  0  0
  1  3  1  0  0  0  0
  1  2  1  0  0  0  0
  3  4  1  0  0  0  0
  3  5  1  0  0  0  0
  4  8  1  0  0  0  0
  5  6  1  0  0  0  0
  5  7  1  0  0  0  0
  7  8  1  0  0  0  0
  8 19  1  0  0  0  0
  9 15  4  0  0  0  0
  9 10  4  0  0  0  0
 10 11  1  0  0  0  0
 10 12  4  0  0  0  0
 12 13  4  0  0  0  0
 13 14  4  0  0  0  0
 14 15  4  0  0  0  0
 15 16  2  0  0  0  0
 14 17  4  0  0  0  0
 17 18  4  0  0  0  0
 13 19  4  0  0  0  0
 18 19  4  0  0  0  0
M  END
$$$$
