ligand
  PyMOL2.2          3D                             0

 10  9  0  0  0  0  0  0  0  0999 V2000
   32.2730   16.2170   19.4380 N   0  0  0  0  0  0  0  0  0  0  0  0
   31.6220   16.8370   20.6310 C   0  0  0  0  0  0  0  0  0  0  0  0
   32.6450   17.2230   21.6910 C   0  0  0  0  0  0  0  0  0  0  0  0
   33.8490   17.1120   21.4870 O   0  0  0  0  0  0  0  0  0  0  0  0
   30.5530   15.9100   21.2150 C   0  0  0  0  0  0  0  0  0  0  0  0
   29.2300   15.9570   20.4700 C   0  0  0  0  0  0  0  0  0  0  0  0
   28.2340   14.9480   21.0280 C   0  0  0  0  0  0  0  0  0  0  0  0
   27.0410   14.8000   20.0980 C   0  0  0  0  0  0  0  0  0  0  0  0
   27.4300   14.3180   18.7250 N   0  0  0  0  0  0  0  0  0  0  0  0
   32.3170   17.6860   22.7750 O   0  0  0  0  0  0  0  0  0  0  0  0
  1  2  1  0  0  0  0
  2  3  1  0  0  0  0
  2  5  1  0  0  0  0
  3  4  4  0  0  0  0
  3 10  4  0  0  0  0
  5  6  1  0  0  0  0
  6  7  1  0  0  0  0
  7  8  1  0  0  0  0
  8  9  1  0  0  0  0
M  END
$$$$
