ligand
  PyMOL2.2          3D                             0

 42 48  0  0  0  0  0  0  0  0999 V2000
    4.5650  -34.6170  -12.8300 P   0  0  0  0  0  0  0  0  0  0  0  0
    8.1870  -35.6160  -16.2060 P   0  0  0  0  0  0  0  0  0  0  0  0
    4.1000  -35.7250  -11.9140 O   0  5  0  0  0  0  0  0  0  0  0  0
    7.6610  -34.2940  -16.7120 O   0  5  0  0  0  0  0  0  0  0  0  0
    3.7390  -33.3610  -12.9720 O   0  0  0  0  0  0  0  0  0  0  0  0
    9.4810  -36.1710  -16.7510 O   0  0  0  0  0  0  0  0  0  0  0  0
    3.9690  -36.3040  -14.7680 C   0  0  0  0  0  0  0  0  0  0  0  0
    9.1550  -34.5540  -13.9950 C   0  0  0  0  0  0  0  0  0  0  0  0
    4.7930  -35.2390  -14.2970 O   0  0  0  0  0  0  0  0  0  0  0  0
    8.3110  -35.5290  -14.6030 O   0  0  0  0  0  0  0  0  0  0  0  0
    4.7670  -37.1760  -15.7300 C   0  0  0  0  0  0  0  0  0  0  0  0
    8.3810  -33.8130  -12.9120 C   0  0  0  0  0  0  0  0  0  0  0  0
    3.8730  -37.8890  -16.5890 O   0  0  0  0  0  0  0  0  0  0  0  0
    8.9800  -32.5360  -12.6790 O   0  0  0  0  0  0  0  0  0  0  0  0
    5.6820  -36.3360  -16.6050 C   0  0  0  0  0  0  0  0  0  0  0  0
    6.9370  -33.5800  -13.3270 C   0  0  0  0  0  0  0  0  0  0  0  0
    7.0380  -36.7260  -16.4100 O   0  0  0  0  0  0  0  0  0  0  0  0
    6.0550  -34.1940  -12.3920 O   0  0  0  0  0  0  0  0  0  0  0  0
    5.2660  -36.6010  -18.0400 C   0  0  0  0  0  0  0  0  0  0  0  0
    6.7280  -32.0780  -13.3300 C   0  0  0  0  0  0  0  0  0  0  0  0
    4.1130  -37.5910  -17.9670 C   0  0  0  0  0  0  0  0  0  0  0  0
    8.0590  -31.4680  -12.9140 C   0  0  0  0  0  0  0  0  0  0  0  0
    0.6950  -33.6060  -17.8430 N   0  0  0  0  0  0  0  0  0  0  0  0
    1.7750  -33.8470  -17.0770 C   0  0  0  0  0  0  0  0  0  0  0  0
    2.5700  -34.9230  -17.2230 N   0  0  0  0  0  0  0  0  0  0  0  0
    2.3180  -35.8490  -18.1790 C   0  0  0  0  0  0  0  0  0  0  0  0
    1.1540  -35.6560  -19.0580 C   0  0  0  0  0  0  0  0  0  0  0  0
    0.3260  -34.4470  -18.8350 C   0  0  0  0  0  0  0  0  0  0  0  0
   -0.7630  -34.1930  -19.6000 N   0  0  0  0  0  0  0  0  0  0  0  0
    1.1340  -36.7030  -19.9040 N   0  0  0  0  0  0  0  0  0  0  0  0
    2.1910  -37.4970  -19.5950 C   0  0  0  0  0  0  0  0  0  0  0  0
    2.8970  -36.9880  -18.5670 N   0  0  0  0  0  0  0  0  0  0  0  0
    9.7940  -26.6910  -14.2340 N   0  0  0  0  0  0  0  0  0  0  0  0
    9.3780  -27.1650  -13.0450 C   0  0  0  0  0  0  0  0  0  0  0  0
    8.9550  -28.4270  -12.8500 N   0  0  0  0  0  0  0  0  0  0  0  0
    8.9250  -29.3150  -13.8730 C   0  0  0  0  0  0  0  0  0  0  0  0
    9.3650  -28.8720  -15.2050 C   0  0  0  0  0  0  0  0  0  0  0  0
    9.8170  -27.4670  -15.3390 C   0  0  0  0  0  0  0  0  0  0  0  0
   10.2390  -26.9780  -16.5310 N   0  0  0  0  0  0  0  0  0  0  0  0
    9.2370  -29.9330  -16.0240 N   0  0  0  0  0  0  0  0  0  0  0  0
    8.7570  -30.9640  -15.2820 C   0  0  0  0  0  0  0  0  0  0  0  0
    8.5710  -30.5960  -14.0010 N   0  0  0  0  0  0  0  0  0  0  0  0
  1  3  1  0  0  0  0
  1  5  2  0  0  0  0
  1  9  1  0  0  0  0
  1 18  1  0  0  0  0
  2  4  1  0  0  0  0
  2  6  2  0  0  0  0
  2 10  1  0  0  0  0
  7 11  1  0  0  0  0
  8 12  1  0  0  0  0
  7  9  1  0  0  0  0
  8 10  1  0  0  0  0
 11 13  1  0  0  0  0
 11 15  1  0  0  0  0
 12 14  1  0  0  0  0
 12 16  1  0  0  0  0
 13 21  1  0  0  0  0
 14 22  1  0  0  0  0
 15 17  1  0  0  0  0
 15 19  1  0  0  0  0
 16 18  1  0  0  0  0
 16 20  1  0  0  0  0
  2 17  1  0  0  0  0
 19 21  1  0  0  0  0
 20 22  1  0  0  0  0
 21 32  1  0  0  0  0
 22 42  1  0  0  0  0
 23 24  4  0  0  0  0
 24 25  4  0  0  0  0
 25 26  4  0  0  0  0
 26 27  4  0  0  0  0
 27 28  4  0  0  0  0
 23 28  4  0  0  0  0
 28 29  1  0  0  0  0
 27 30  4  0  0  0  0
 30 31  4  0  0  0  0
 26 32  4  0  0  0  0
 31 32  4  0  0  0  0
 33 34  4  0  0  0  0
 34 35  4  0  0  0  0
 35 36  4  0  0  0  0
 36 37  4  0  0  0  0
 37 38  4  0  0  0  0
 33 38  4  0  0  0  0
 38 39  1  0  0  0  0
 37 40  4  0  0  0  0
 40 41  4  0  0  0  0
 36 42  4  0  0  0  0
 41 42  4  0  0  0  0
M  END
$$$$
