ligand
  PyMOL2.2          3D                             0

 11 12  0  0  0  0  0  0  0  0999 V2000
    3.8000  -19.9460   25.8380 N   0  0  0  0  0  0  0  0  0  0  0  0
    3.5830  -19.5580   27.1190 C   0  0  0  0  0  0  0  0  0  0  0  0
    4.6250  -18.9420   27.8850 N   0  0  0  0  0  0  0  0  0  0  0  0
    2.3860  -19.7480   27.7020 N   0  0  0  0  0  0  0  0  0  0  0  0
    1.3440  -20.3340   27.0190 C   0  0  0  0  0  0  0  0  0  0  0  0
    1.5380  -20.7420   25.7120 C   0  0  0  0  0  0  0  0  0  0  0  0
    2.8190  -20.5340   25.1190 C   0  0  0  0  0  0  0  0  0  0  0  0
    3.0550  -20.9460   23.7690 N   0  0  0  0  0  0  0  0  0  0  0  0
    0.3430  -21.2900   25.2860 N   0  0  0  0  0  0  0  0  0  0  0  0
   -0.5490  -21.2270   26.2950 C   0  0  0  0  0  0  0  0  0  0  0  0
    0.0370  -20.6500   27.3630 N   0  0  0  0  0  0  0  0  0  0  0  0
  1  7  4  0  0  0  0
  1  2  4  0  0  0  0
  2  3  1  0  0  0  0
  2  4  4  0  0  0  0
  4  5  4  0  0  0  0
  5  6  4  0  0  0  0
  6  7  4  0  0  0  0
  7  8  1  0  0  0  0
  6  9  4  0  0  0  0
  9 10  4  0  0  0  0
  5 11  4  0  0  0  0
 10 11  4  0  0  0  0
M  END
$$$$
