ligand
  PyMOL2.3          3D                             0

 13 14  0  0  0  0  0  0  0  0999 V2000
   34.2370   33.9080   23.1640 N   0  0  0  0  0  0  0  0  0  0  0  0
   33.6300   32.7720   23.7300 C   0  0  0  0  0  0  0  0  0  0  0  0
   32.5310   32.2550   23.0570 N   0  0  0  0  0  0  0  0  0  0  0  0
   34.0060   32.1660   24.8820 N   0  0  0  0  0  0  0  0  0  0  0  0
   35.0970   32.7970   25.4720 C   0  0  0  0  0  0  0  0  0  0  0  0
   35.7730   33.9180   24.9750 C   0  0  0  0  0  0  0  0  0  0  0  0
   35.3630   34.5330   23.7830 C   0  0  0  0  0  0  0  0  0  0  0  0
   35.8560   35.5200   23.2570 O   0  0  0  0  0  0  0  0  0  0  0  0
   36.8220   34.2520   25.8620 C   0  0  0  0  0  0  0  0  0  0  0  0
   36.7770   33.3220   26.8890 C   0  0  0  0  0  0  0  0  0  0  0  0
   35.7130   32.4160   26.6500 N   0  0  0  0  0  0  0  0  0  0  0  0
   37.7330   35.4120   25.6640 C   0  0  0  0  0  0  0  0  0  0  0  0
   38.8430   35.3780   26.6290 N   0  0  0  0  0  0  0  0  0  0  0  0
  1  2  4  0  0  0  0
  1  7  4  0  0  0  0
  2  3  1  0  0  0  0
  2  4  4  0  0  0  0
  4  5  4  0  0  0  0
  5  6  4  0  0  0  0
  5 11  4  0  0  0  0
  6  7  4  0  0  0  0
  6  9  4  0  0  0  0
  7  8  2  0  0  0  0
  9 10  4  0  0  0  0
  9 12  1  0  0  0  0
 10 11  4  0  0  0  0
 12 13  1  0  0  0  0
M  END
$$$$
