ligand
  PyMOL2.2          3D                             0

 16 16  0  0  0  0  0  0  0  0999 V2000
   49.7590   11.9280   11.8760 P   0  0  0  0  0  0  0  0  0  0  0  0
   50.0370   13.3840   11.8140 O   0  0  0  0  0  0  0  0  0  0  0  0
   50.8880   11.1800   12.7460 O   0  5  0  0  0  0  0  0  0  0  0  0
   49.7770   11.3190   10.3750 O   0  0  0  0  0  0  0  0  0  0  0  0
   44.7080   10.4400   14.2960 C   0  0  0  0  0  0  0  0  0  0  0  0
   44.1060    9.2200   13.8390 O   0  0  0  0  0  0  0  0  0  0  0  0
   43.9460   11.6870   13.7650 C   0  0  0  0  0  0  0  0  0  0  0  0
   42.5320   11.6310   14.1970 N   0  0  0  0  0  0  0  0  0  0  0  0
   44.0300   11.6960   12.2240 C   0  0  0  0  0  0  0  0  0  0  0  0
   43.3510   12.8490   11.6960 O   0  0  0  0  0  0  0  0  0  0  0  0
   45.5130   11.7430   11.8280 C   0  0  0  0  0  0  0  0  0  0  0  0
   45.6270   11.7370   10.3980 O   0  0  0  0  0  0  0  0  0  0  0  0
   46.2160   10.4910   12.4160 C   0  0  0  0  0  0  0  0  0  0  0  0
   46.0990   10.4820   13.8680 O   0  0  0  0  0  0  0  0  0  0  0  0
   47.7090   10.5180   12.0450 C   0  0  0  0  0  0  0  0  0  0  0  0
   48.3190   11.7090   12.5750 O   0  0  0  0  0  0  0  0  0  0  0  0
  1  2  1  0  0  0  0
  1  3  1  0  0  0  0
  1  4  2  0  0  0  0
  5  6  1  0  0  0  0
  5  7  1  0  0  0  0
  5 14  1  0  0  0  0
  7  8  1  0  0  0  0
  7  9  1  0  0  0  0
  9 10  1  0  0  0  0
  9 11  1  0  0  0  0
 11 12  1  0  0  0  0
 11 13  1  0  0  0  0
 13 14  1  0  0  0  0
 13 15  1  0  0  0  0
 15 16  1  0  0  0  0
  1 16  1  0  0  0  0
M  END
$$$$
