2o3v_lig
 OpenBabel02221317003D

 35 37  0  0  1  0  0  0  0  0999 V2000
    2.6460   -8.6990   45.4110 C   0  0  2  0  0  0  0  0  0  0  0  0
    3.0900   -7.7390   44.4040 O   0  0  0  0  0  0  0  0  0  0  0  0
    6.7080   -6.1910   42.5490 C   0  0  2  0  0  0  0  0  0  0  0  0
    8.0960   -5.6630   42.3850 N   0  0  0  0  0  0  0  0  0  0  0  0
   -5.6970   -9.2700   48.4240 C   0  0  2  0  0  0  0  0  0  0  0  0
   -5.1610   -8.5250   49.5390 O   0  0  0  0  0  0  0  0  0  0  0  0
    1.1220   -8.8520   45.1070 C   0  0  2  0  0  0  0  0  0  0  0  0
    0.8970   -9.3260   43.7210 N   0  0  0  0  0  0  0  0  0  0  0  0
    5.8540   -5.2090   43.4610 C   0  0  0  0  0  0  0  0  0  0  0  0
   -4.6040   -9.2870   47.3000 C   0  0  2  0  0  0  0  0  0  0  0  0
   -3.3370   -9.8800   47.7980 N   0  0  0  0  0  0  0  0  0  0  0  0
    0.3400   -7.4870   45.3410 C   0  0  1  0  0  0  0  0  0  0  0  0
   -1.0990   -7.6420   45.0040 O   0  0  0  0  0  0  0  0  0  0  0  0
    4.3870   -5.7990   43.6290 C   0  0  2  0  0  0  0  0  0  0  0  0
    3.5780   -4.9050   44.4850 N   0  0  0  0  0  0  0  0  0  0  0  0
   -4.3410   -7.8290   46.7170 C   0  0  1  0  0  0  0  0  0  0  0  0
   -3.3570   -7.8200   45.6510 O   0  0  0  0  0  0  0  0  0  0  0  0
    0.6130   -7.0330   46.8420 C   0  0  2  0  0  0  0  0  0  0  0  0
   -0.0280   -5.8050   47.1370 O   0  0  0  0  0  0  0  0  0  0  0  0
    4.4570   -7.2450   44.2720 C   0  0  2  0  0  0  0  0  0  0  0  0
   -5.6950   -7.2530   46.1940 C   0  0  2  0  0  0  0  0  0  0  0  0
   -5.5240   -5.9500   45.6720 O   0  0  0  0  0  0  0  0  0  0  0  0
    2.1610   -6.9060   47.1090 C   0  0  2  0  0  0  0  0  0  0  0  0
    2.8290   -8.1870   46.7970 O   0  0  0  0  0  0  0  0  0  0  0  0
    5.2990   -8.1970   43.3770 C   0  0  2  0  0  0  0  0  0  0  0  0
    5.3530   -9.4890   44.0470 O   0  0  0  0  0  0  0  0  0  0  0  0
   -6.7680   -7.2580   47.3550 C   0  0  2  0  0  0  0  0  0  0  0  0
   -6.9310   -8.6260   47.8980 O   0  0  0  0  0  0  0  0  0  0  0  0
    2.4520   -6.5070   48.5550 C   0  0  0  0  0  0  0  0  0  0  0  0
    3.8360   -6.3980   48.7820 O   0  0  0  0  0  0  0  0  0  0  0  0
    6.7260   -7.6250   43.2080 C   0  0  1  0  0  0  0  0  0  0  0  0
    7.4670   -8.5040   42.3880 O   0  0  0  0  0  0  0  0  0  0  0  0
   -8.1190   -6.7450   46.8800 C   0  0  0  0  0  0  0  0  0  0  0  0
   -9.0520   -6.7710   47.9330 O   0  0  0  0  0  0  0  0  0  0  0  0
   -2.0180   -7.6540   46.2030 C   0  0  0  0  0  0  0  0  0  0  0  0
  1  2  1  1  0  0  0
  1  7  1  0  0  0  0
  1 24  1  0  0  0  0
  3  4  1  1  0  0  0
  3  9  1  0  0  0  0
  3 31  1  0  0  0  0
  5  6  1  6  0  0  0
  5 10  1  0  0  0  0
  5 28  1  0  0  0  0
  7  8  1  6  0  0  0
  7 12  1  0  0  0  0
  9 14  1  0  0  0  0
 10 11  1  1  0  0  0
 10 16  1  0  0  0  0
 12 13  1  1  0  0  0
 12 18  1  0  0  0  0
 13 35  1  0  0  0  0
 14 15  1  1  0  0  0
 14 20  1  0  0  0  0
 16 17  1  6  0  0  0
 16 21  1  0  0  0  0
 17 35  1  0  0  0  0
 18 19  1  6  0  0  0
 18 23  1  0  0  0  0
 20  2  1  6  0  0  0
 20 25  1  0  0  0  0
 21 22  1  1  0  0  0
 21 27  1  0  0  0  0
 23 24  1  0  0  0  0
 23 29  1  1  0  0  0
 25 26  1  1  0  0  0
 25 31  1  0  0  0  0
 27 28  1  0  0  0  0
 27 33  1  6  0  0  0
 29 30  1  0  0  0  0
 31 32  1  6  0  0  0
 33 34  1  0  0  0  0
M  END
$$$$
