
  MOE2003           3D

 46 48  0  0  0  0  0  0  0  0999 V2000
  -21.9850    8.8020    6.0990 S   0  0  0  0  0  0  0  0  0  0  0  0
  -24.8150    7.9550    6.4770 N   0  0  0  0  0  0  0  0  0  0  0  0
  -24.5770    7.1350    8.7320 C   0  0  0  0  0  0  0  0  0  0  0  0
  -23.7570    6.9120    9.8460 C   0  0  0  0  0  0  0  0  0  0  0  0
  -22.4130    7.2710    9.8100 C   0  0  0  0  0  0  0  0  0  0  0  0
  -21.8800    7.8490    8.6630 C   0  0  0  0  0  0  0  0  0  0  0  0
  -22.6850    8.0730    7.5490 C   0  0  0  0  0  0  0  0  0  0  0  0
  -24.0390    7.7180    7.5760 C   0  0  0  0  0  0  0  0  0  0  0  0
  -22.9130    7.7320    5.0460 C   0  0  0  0  0  0  0  0  0  0  0  0
  -22.3230    7.1930    3.8990 C   0  0  0  0  0  0  0  0  0  0  0  0
  -23.0630    6.3500    3.0650 C   0  0  0  0  0  0  0  0  0  0  0  0
  -24.3930    6.0520    3.3790 C   0  0  0  0  0  0  0  0  0  0  0  0
  -24.9760    6.5940    4.5250 C   0  0  0  0  0  0  0  0  0  0  0  0
  -24.2430    7.4280    5.3580 C   0  0  0  0  0  0  0  0  0  0  0  0
  -26.2940    7.9710    6.5970 C   0  0  0  0  0  0  0  0  0  0  0  0
  -26.9970    6.6150    6.9390 C   0  0  0  0  0  0  0  0  0  0  0  0
  -27.9320    6.0910    5.7960 C   0  0  0  0  0  0  0  0  0  0  0  0
  -28.4800    4.7170    5.9290 N   0  3  0  0  0  0  0  0  0  0  0  0
  -29.3440    4.7480    6.4490 H   0  0  0  0  0  0  0  0  0  0  0  0
  -27.5340    3.8210    6.6430 C   0  0  0  0  0  0  0  0  0  0  0  0
  -28.8580    4.1650    4.5820 C   0  0  0  0  0  0  0  0  0  0  0  0
  -24.3200    6.2800   11.0870 C   0  0  0  0  0  0  0  0  0  0  0  0
  -25.6600    5.5850   11.0920 C   0  0  0  0  0  0  0  0  0  0  0  0
  -23.6540    6.2720   12.1100 O   0  0  0  0  0  0  0  0  0  0  0  0
  -25.6180    6.8560    8.7650 H   0  0  0  0  0  0  0  0  0  0  0  0
  -21.7840    7.0980   10.6710 H   0  0  0  0  0  0  0  0  0  0  0  0
  -20.8450    8.1260    8.6380 H   0  0  0  0  0  0  0  0  0  0  0  0
  -21.2960    7.4240    3.6590 H   0  0  0  0  0  0  0  0  0  0  0  0
  -22.6090    5.9320    2.1780 H   0  0  0  0  0  0  0  0  0  0  0  0
  -24.9670    5.4020    2.7370 H   0  0  0  0  0  0  0  0  0  0  0  0
  -25.9940    6.3740    4.7640 H   0  0  0  0  0  0  0  0  0  0  0  0
  -26.7020    8.3240    5.6680 H   0  0  0  0  0  0  0  0  0  0  0  0
  -26.5480    8.6760    7.3590 H   0  0  0  0  0  0  0  0  0  0  0  0
  -27.5900    6.7610    7.8270 H   0  0  0  0  0  0  0  0  0  0  0  0
  -26.2540    5.8760    7.1500 H   0  0  0  0  0  0  0  0  0  0  0  0
  -27.3740    6.1240    4.8770 H   0  0  0  0  0  0  0  0  0  0  0  0
  -28.7540    6.7680    5.7030 H   0  0  0  0  0  0  0  0  0  0  0  0
  -27.6490    2.8110    6.2810 H   0  0  0  0  0  0  0  0  0  0  0  0
  -27.7360    3.8530    7.7030 H   0  0  0  0  0  0  0  0  0  0  0  0
  -26.5200    4.1560    6.4570 H   0  0  0  0  0  0  0  0  0  0  0  0
  -29.8230    4.5510    4.2850 H   0  0  0  0  0  0  0  0  0  0  0  0
  -28.9020    3.0870    4.6260 H   0  0  0  0  0  0  0  0  0  0  0  0
  -28.1170    4.4640    3.8530 H   0  0  0  0  0  0  0  0  0  0  0  0
  -25.9510    5.3680   12.1070 H   0  0  0  0  0  0  0  0  0  0  0  0
  -25.5780    4.6610   10.5330 H   0  0  0  0  0  0  0  0  0  0  0  0
  -26.3990    6.2250   10.6300 H   0  0  0  0  0  0  0  0  0  0  0  0
  1  7  1  0  0  0  0
  1  9  1  0  0  0  0
  2  8  1  0  0  0  0
  2 14  1  0  0  0  0
  2 15  1  0  0  0  0
  3  4  2  0  0  0  0
  3  8  1  0  0  0  0
  3 25  1  0  0  0  0
  4  5  1  0  0  0  0
  4 22  1  0  0  0  0
  5  6  2  0  0  0  0
  5 26  1  0  0  0  0
  6  7  1  0  0  0  0
  6 27  1  0  0  0  0
  7  8  2  0  0  0  0
  9 10  2  0  0  0  0
  9 14  1  0  0  0  0
 10 11  1  0  0  0  0
 10 28  1  0  0  0  0
 11 12  2  0  0  0  0
 11 29  1  0  0  0  0
 12 13  1  0  0  0  0
 12 30  1  0  0  0  0
 13 14  2  0  0  0  0
 13 31  1  0  0  0  0
 15 16  1  0  0  0  0
 15 32  1  0  0  0  0
 15 33  1  0  0  0  0
 16 17  1  0  0  0  0
 16 34  1  0  0  0  0
 16 35  1  0  0  0  0
 17 18  1  0  0  0  0
 17 36  1  0  0  0  0
 17 37  1  0  0  0  0
 18 19  1  0  0  0  0
 18 20  1  0  0  0  0
 18 21  1  0  0  0  0
 20 38  1  0  0  0  0
 20 39  1  0  0  0  0
 20 40  1  0  0  0  0
 21 41  1  0  0  0  0
 21 42  1  0  0  0  0
 21 43  1  0  0  0  0
 22 23  1  0  0  0  0
 22 24  2  0  0  0  0
 23 44  1  0  0  0  0
 23 45  1  0  0  0  0
 23 46  1  0  0  0  0
M  CHG  1  18   1
M  END
