ligand
  PyMOL2.2          3D                             0

 13 14  0  0  0  0  0  0  0  0999 V2000
   34.1500   33.9600   23.0350 N   0  0  0  0  0  0  0  0  0  0  0  0
   33.3460   32.6700   23.4820 C   0  0  0  0  0  0  0  0  0  0  0  0
   32.2540   32.2680   22.7380 N   0  0  0  0  0  0  0  0  0  0  0  0
   33.8220   32.1560   24.5370 N   0  0  0  0  0  0  0  0  0  0  0  0
   34.8820   32.4990   25.2940 C   0  0  0  0  0  0  0  0  0  0  0  0
   35.6270   33.5770   24.9800 C   0  0  0  0  0  0  0  0  0  0  0  0
   35.2020   34.4100   23.7070 C   0  0  0  0  0  0  0  0  0  0  0  0
   35.8690   35.3570   23.4390 O   0  0  0  0  0  0  0  0  0  0  0  0
   36.7770   33.8160   25.9760 C   0  0  0  0  0  0  0  0  0  0  0  0
   36.6760   32.8260   26.8700 C   0  0  0  0  0  0  0  0  0  0  0  0
   35.6370   31.9590   26.6630 N   0  0  0  0  0  0  0  0  0  0  0  0
   37.7820   34.9010   25.9110 C   0  0  0  0  0  0  0  0  0  0  0  0
   38.5260   35.7820   25.8260 N   0  0  0  0  0  0  0  0  0  0  0  0
  1  2  4  0  0  0  0
  1  7  4  0  0  0  0
  2  3  1  0  0  0  0
  2  4  4  0  0  0  0
  4  5  4  0  0  0  0
  5  6  4  0  0  0  0
  5 11  4  0  0  0  0
  6  7  4  0  0  0  0
  6  9  4  0  0  0  0
  7  8  2  0  0  0  0
  9 10  4  0  0  0  0
  9 12  1  0  0  0  0
 10 11  4  0  0  0  0
 12 13  3  0  0  0  0
M  END
$$$$
