ligand
  PyMOL2.2          3D                             0

 31 33  0  0  0  0  0  0  0  0999 V2000
   -6.7080   -9.7390  -17.7210 C   0  0  0  0  0  0  0  0  0  0  0  0
   -5.3450  -10.1750  -17.8140 O   0  0  0  0  0  0  0  0  0  0  0  0
   -1.8380  -10.2610  -15.3610 C   0  0  0  0  0  0  0  0  0  0  0  0
   -0.7950   -9.8300  -14.4810 N   0  0  0  0  0  0  0  0  0  0  0  0
   -3.1670  -10.3370  -12.1270 C   0  0  0  0  0  0  0  0  0  0  0  0
   -7.5700  -10.8240  -18.4570 C   0  0  0  0  0  0  0  0  0  0  0  0
   -7.3510  -12.1280  -17.8410 N   0  0  0  0  0  0  0  0  0  0  0  0
   -1.7860   -9.3930  -16.6770 C   0  0  0  0  0  0  0  0  0  0  0  0
   -2.2910  -11.3530  -11.3310 C   0  0  0  0  0  0  0  0  0  0  0  0
   -1.0140  -11.4380  -11.9400 O   0  0  0  0  0  0  0  0  0  0  0  0
   -7.1930  -10.8590  -19.9790 C   0  0  0  0  0  0  0  0  0  0  0  0
   -2.9400   -9.8780  -17.6570 C   0  0  0  0  0  0  0  0  0  0  0  0
   -2.9020   -9.0680  -18.8970 N   0  0  0  0  0  0  0  0  0  0  0  0
   -3.0410  -12.7570  -11.3810 C   0  0  0  0  0  0  0  0  0  0  0  0
   -2.2450  -13.8090  -10.6620 N   0  0  0  0  0  0  0  0  0  0  0  0
   -7.1490   -9.4210  -20.5720 C   0  0  0  0  0  0  0  0  0  0  0  0
   -4.3520   -9.7190  -16.9360 C   0  0  0  0  0  0  0  0  0  0  0  0
   -4.4990  -12.6100  -10.6700 C   0  0  0  0  0  0  0  0  0  0  0  0
   -4.3930  -12.2180   -9.3150 O   0  0  0  0  0  0  0  0  0  0  0  0
   -7.0190   -8.3490  -19.7760 C   0  0  0  0  0  0  0  0  0  0  0  0
   -6.9160   -8.4360  -18.3440 O   0  0  0  0  0  0  0  0  0  0  0  0
   -4.3590  -10.5800  -15.6040 C   0  0  0  0  0  0  0  0  0  0  0  0
   -5.6160  -10.4260  -14.9330 O   0  0  0  0  0  0  0  0  0  0  0  0
   -5.3310  -11.5150  -11.4190 C   0  0  0  0  0  0  0  0  0  0  0  0
   -4.5320  -10.2250  -11.4980 O   0  0  0  0  0  0  0  0  0  0  0  0
   -6.9760   -6.9120  -20.3460 C   0  0  0  0  0  0  0  0  0  0  0  0
   -5.6360   -6.3650  -20.1860 N   0  0  0  0  0  0  0  0  0  0  0  0
   -3.2120  -10.0900  -14.6480 C   0  0  0  0  0  0  0  0  0  0  0  0
   -3.2470  -10.8790  -13.4830 O   0  0  0  0  0  0  0  0  0  0  0  0
   -5.3580  -13.8850  -10.6390 C   0  0  0  0  0  0  0  0  0  0  0  0
   -1.5460  -14.7940  -11.5090 C   0  0  0  0  0  0  0  0  0  0  0  0
  1  2  1  0  0  0  0
  1  6  1  0  0  0  0
  1 21  1  0  0  0  0
  3  4  1  0  0  0  0
  3  8  1  0  0  0  0
  3 28  1  0  0  0  0
  5  9  1  0  0  0  0
  5 25  1  0  0  0  0
  5 29  1  0  0  0  0
  6  7  1  0  0  0  0
  6 11  1  0  0  0  0
  8 12  1  0  0  0  0
  9 10  1  0  0  0  0
  9 14  1  0  0  0  0
 11 16  1  0  0  0  0
 12 13  1  0  0  0  0
 12 17  1  0  0  0  0
 14 15  1  0  0  0  0
 14 18  1  0  0  0  0
 16 20  1  0  0  0  0
  2 17  1  0  0  0  0
 17 22  1  0  0  0  0
 18 19  1  0  0  0  0
 18 24  1  0  0  0  0
 18 30  1  0  0  0  0
 20 21  1  0  0  0  0
 20 26  1  0  0  0  0
 22 23  1  0  0  0  0
 22 28  1  0  0  0  0
 24 25  1  0  0  0  0
 26 27  1  0  0  0  0
 28 29  1  0  0  0  0
 15 31  1  0  0  0  0
M  END
$$$$
