ligand
  PyMOL2.2          3D                             0

 13 12  0  0  0  0  0  0  0  0999 V2000
   30.7520   34.5970   47.8230 O   0  0  0  0  0  0  0  0  0  0  0  0
   29.3840   36.9780   48.1050 O   0  0  0  0  0  0  0  0  0  0  0  0
   33.8640   32.0780   46.3490 P   0  0  0  0  0  0  0  0  0  0  0  0
   32.9440   32.6310   45.2960 O   0  5  0  0  0  0  0  0  0  0  0  0
   35.2690   31.7510   46.2400 O   0  0  0  0  0  0  0  0  0  0  0  0
   33.2490   32.6610   47.7220 O   0  0  0  0  0  0  0  0  0  0  0  0
   27.9980   36.3730   50.5190 O   0  0  0  0  0  0  0  0  0  0  0  0
   31.8600   32.4790   48.0730 C   0  0  0  0  0  0  0  0  0  0  0  0
   30.5920   36.9990   47.3200 C   0  0  0  0  0  0  0  0  0  0  0  0
   29.2450   37.0900   50.5410 C   0  0  0  0  0  0  0  0  0  0  0  0
   31.3200   33.7200   48.7990 C   0  0  0  0  0  0  0  0  0  0  0  0
   31.5090   35.8180   47.7150 C   0  0  0  0  0  0  0  0  0  0  0  0
   29.4240   37.8810   49.2240 C   0  0  0  0  0  0  0  0  0  0  0  0
  1 12  1  0  0  0  0
  2 13  1  0  0  0  0
  3  4  1  0  0  0  0
  3  5  2  0  0  0  0
  3  6  1  0  0  0  0
  6  8  1  0  0  0  0
  8 11  1  0  0  0  0
  2  9  1  0  0  0  0
  9 12  1  0  0  0  0
  7 10  1  0  0  0  0
 10 13  1  0  0  0  0
  1 11  1  0  0  0  0
M  END
$$$$
