ligand
  PyMOL2.2          3D                             0

  4  3  0  0  0  0  0  0  0  0999 V2000
   35.9870   19.8080   10.5830 C   0  0  0  0  0  0  0  0  0  0  0  0
   36.0020   19.4330   11.7800 O   0  0  0  0  0  0  0  0  0  0  0  0
   35.9210   18.7050    9.5410 C   0  0  0  0  0  0  0  0  0  0  0  0
   36.0170   21.0320   10.1020 O   0  0  0  0  0  0  0  0  0  0  0  0
  1  2  4  0  0  0  0
  1  3  1  0  0  0  0
  1  4  4  0  0  0  0
M  END
$$$$
