ligand
  PyMOL2.3          3D                             0

 22 23  0  0  0  0  0  0  0  0999 V2000
  -29.1960    3.2410  -10.6380 N   0  0  0  0  0  0  0  0  0  0  0  0
  -25.9900    4.3100  -10.8150 C   0  0  0  0  0  0  0  0  0  0  0  0
  -26.9320    3.3740  -10.2180 O   0  0  0  0  0  0  0  0  0  0  0  0
  -24.7460    7.6660   -9.5970 P   0  0  0  0  0  0  0  0  0  0  0  0
  -27.9440    3.0780  -11.1940 C   0  0  0  0  0  0  0  0  0  0  0  0
  -30.8750    4.1260   -9.5850 N   0  0  0  0  0  0  0  0  0  0  0  0
  -28.3250    3.6830  -13.4710 O   0  0  0  0  0  0  0  0  0  0  0  0
  -27.8000    4.1370  -12.2180 C   0  0  0  0  0  0  0  0  0  0  0  0
  -33.6290    3.0930   -9.3360 N   0  0  0  0  0  0  0  0  0  0  0  0
  -25.6770    3.3360  -12.9240 O   0  0  0  0  0  0  0  0  0  0  0  0
  -26.3660    4.3980  -12.2430 C   0  0  0  0  0  0  0  0  0  0  0  0
  -31.2650    2.9380  -10.0720 C   0  0  0  0  0  0  0  0  0  0  0  0
  -30.2140    1.1360  -11.4180 N   0  0  0  0  0  0  0  0  0  0  0  0
  -25.0080    6.3330  -10.3800 O   0  0  0  0  0  0  0  0  0  0  0  0
  -26.1710    5.6160  -10.1210 C   0  0  0  0  0  0  0  0  0  0  0  0
  -23.2460    7.9920   -9.9350 O   0  0  0  0  0  0  0  0  0  0  0  0
  -29.5870    4.3090   -9.9330 C   0  0  0  0  0  0  0  0  0  0  0  0
  -32.8170    1.1800  -10.2670 O   0  0  0  0  0  0  0  0  0  0  0  0
  -32.6030    2.3390   -9.9120 C   0  0  0  0  0  0  0  0  0  0  0  0
  -30.2140    2.3760  -10.7390 C   0  0  0  0  0  0  0  0  0  0  0  0
  -25.7210    8.7070  -10.0370 O   0  5  0  0  0  0  0  0  0  0  0  0
  -25.0990    7.5140   -8.1740 O   0  0  0  0  0  0  0  0  0  0  0  0
  1  5  1  0  0  0  0
  2 15  1  0  0  0  0
  2  3  1  0  0  0  0
  4 16  1  0  0  0  0
  4 21  1  0  0  0  0
  4 22  2  0  0  0  0
  3  5  1  0  0  0  0
  5  8  1  0  0  0  0
  6 17  4  0  0  0  0
  7  8  1  0  0  0  0
  8 11  1  0  0  0  0
  2 11  1  0  0  0  0
 10 11  1  0  0  0  0
  6 12  4  0  0  0  0
 12 20  4  0  0  0  0
  4 14  1  0  0  0  0
 14 15  1  0  0  0  0
  1 17  4  0  0  0  0
 18 19  2  0  0  0  0
  9 19  1  0  0  0  0
 12 19  1  0  0  0  0
  1 20  4  0  0  0  0
 13 20  1  0  0  0  0
M  END
$$$$
