2et4_lig
 OpenBabel02221317003D

 42 45  0  0  1  0  0  0  0  0999 V2000
   13.9880    9.3470    5.1460 C   0  0  2  0  0  0  0  0  0  0  0  0
   14.8630    8.3030    4.7140 O   0  0  0  0  0  0  0  0  0  0  0  0
   12.5840    9.0350    4.5680 C   0  0  2  0  0  0  0  0  0  0  0  0
   12.1190    7.7380    4.9890 N   0  0  0  0  0  0  0  0  0  0  0  0
   12.6340    9.1350    3.0160 C   0  0  1  0  0  0  0  0  0  0  0  0
   11.3670    8.8700    2.5000 O   0  0  0  0  0  0  0  0  0  0  0  0
   13.1430   10.5650    2.6340 C   0  0  2  0  0  0  0  0  0  0  0  0
   13.2110   10.6980    1.2300 O   0  0  0  0  0  0  0  0  0  0  0  0
   14.5510   10.8350    3.2460 C   0  0  2  0  0  0  0  0  0  0  0  0
   14.4640   10.6750    4.6650 O   0  0  0  0  0  0  0  0  0  0  0  0
   15.0740   12.2720    2.9190 C   0  0  0  0  0  0  0  0  0  0  0  0
   16.3530   12.5200    3.4880 N   0  0  0  0  0  0  0  0  0  0  0  0
   17.9960    5.8880    6.4480 C   0  0  2  0  0  0  0  0  0  0  0  0
   19.2230    5.5250    7.1680 N   0  0  0  0  0  0  0  0  0  0  0  0
   18.3680    6.8400    5.1880 C   0  0  0  0  0  0  0  0  0  0  0  0
   17.0400    7.2400    4.4240 C   0  0  2  0  0  0  0  0  0  0  0  0
   17.3290    8.1280    3.2840 N   0  0  0  0  0  0  0  0  0  0  0  0
   16.0660    7.9610    5.4160 C   0  0  2  0  0  0  0  0  0  0  0  0
   15.7390    7.0430    6.6400 C   0  0  2  0  0  0  0  0  0  0  0  0
   14.8510    7.8020    7.4970 O   0  0  0  0  0  0  0  0  0  0  0  0
   17.0580    6.6640    7.3870 C   0  0  1  0  0  0  0  0  0  0  0  0
   16.7390    5.8400    8.4570 O   0  0  0  0  0  0  0  0  0  0  0  0
   13.9520    7.2730    8.3620 C   0  0  1  0  0  0  0  0  0  0  0  0
   13.8350    8.1410    9.6420 C   0  0  2  0  0  0  0  0  0  0  0  0
   14.8140    7.8470   10.5960 O   0  0  0  0  0  0  0  0  0  0  0  0
   12.3800    7.8800    9.9850 C   0  0  1  0  0  0  0  0  0  0  0  0
   11.6190    7.8020    8.6540 C   0  0  2  0  0  0  0  0  0  0  0  0
   12.6000    7.1570    7.8420 O   0  0  0  0  0  0  0  0  0  0  0  0
   11.1740    9.1770    8.0490 C   0  0  0  0  0  0  0  0  0  0  0  0
   10.1180    8.9080    7.0890 O   0  0  0  0  0  0  0  0  0  0  0  0
   11.1600    6.3190   11.4670 C   0  0  2  0  0  0  0  0  0  0  0  0
   12.3200    6.5960   10.7310 O   0  0  0  0  0  0  0  0  0  0  0  0
   11.4580    5.3090   12.6590 C   0  0  1  0  0  0  0  0  0  0  0  0
    8.4010    4.3340    8.8610 N   0  0  0  0  0  0  0  0  0  0  0  0
   10.0550    5.0460   13.4200 C   0  0  1  0  0  0  0  0  0  0  0  0
    9.5270    6.3800   13.9090 O   0  0  0  0  0  0  0  0  0  0  0  0
    8.9960    4.3600   12.4030 C   0  0  2  0  0  0  0  0  0  0  0  0
    9.5180    3.0850   11.9580 O   0  0  0  0  0  0  0  0  0  0  0  0
    8.7450    5.4070   11.1780 C   0  0  1  0  0  0  0  0  0  0  0  0
   10.0600    5.7410   10.5290 O   0  0  0  0  0  0  0  0  0  0  0  0
    7.7480    4.8430   10.1060 C   0  0  0  0  0  0  0  0  0  0  0  0
   12.0830    4.0540   12.1250 N   0  0  0  0  0  0  0  0  0  0  0  0
  1  2  1  6  0  0  0
  1  3  1  0  0  0  0
  1 10  1  0  0  0  0
  3  4  1  6  0  0  0
  3  5  1  0  0  0  0
  5  6  1  1  0  0  0
  5  7  1  0  0  0  0
  7  8  1  6  0  0  0
  7  9  1  0  0  0  0
  9 10  1  0  0  0  0
  9 11  1  1  0  0  0
 11 12  1  0  0  0  0
 13 14  1  1  0  0  0
 13 15  1  0  0  0  0
 13 21  1  0  0  0  0
 16 15  1  0  0  0  0
 16 17  1  1  0  0  0
 18  2  1  6  0  0  0
 18 16  1  0  0  0  0
 19 18  1  0  0  0  0
 19 20  1  1  0  0  0
 21 19  1  0  0  0  0
 21 22  1  6  0  0  0
 23 20  1  6  0  0  0
 23 24  1  0  0  0  0
 23 28  1  0  0  0  0
 24 25  1  1  0  0  0
 24 26  1  0  0  0  0
 26 27  1  0  0  0  0
 26 32  1  6  0  0  0
 27 28  1  0  0  0  0
 27 29  1  6  0  0  0
 29 30  1  0  0  0  0
 31 32  1  6  0  0  0
 31 40  1  0  0  0  0
 33 31  1  0  0  0  0
 33 42  1  6  0  0  0
 35 33  1  0  0  0  0
 35 36  1  6  0  0  0
 37 35  1  0  0  0  0
 37 38  1  6  0  0  0
 37 39  1  0  0  0  0
 39 40  1  0  0  0  0
 39 41  1  6  0  0  0
 41 34  1  0  0  0  0
M  END
$$$$
