ligand
  PyMOL2.2          3D                             0

 12 12  0  0  0  0  0  0  0  0999 V2000
   31.5230  -21.7480    5.0350 N   0  0  0  0  0  0  0  0  0  0  0  0
   31.3860  -18.5750    8.7450 O   0  0  0  0  0  0  0  0  0  0  0  0
   31.3260  -20.7700    3.9370 C   0  0  0  0  0  0  0  0  0  0  0  0
   29.2040  -18.2810    7.8940 O   0  0  0  0  0  0  0  0  0  0  0  0
   31.8680  -21.3790    2.6480 C   0  0  0  0  0  0  0  0  0  0  0  0
   29.7380  -20.3260    9.1460 O   0  0  0  0  0  0  0  0  0  0  0  0
   31.0800  -22.5640    2.2960 N   0  0  0  0  0  0  0  0  0  0  0  0
   30.0800  -22.7730    3.3460 C   0  0  0  0  0  0  0  0  0  0  0  0
   30.8420  -22.9970    4.6410 C   0  0  0  0  0  0  0  0  0  0  0  0
   31.0770  -21.2940    6.4120 C   0  0  0  0  0  0  0  0  0  0  0  0
   30.8000  -19.7780    6.5880 C   0  0  0  0  0  0  0  0  0  0  0  0
   30.2800  -19.2160    8.0970 S   0  0  0  0  0  0  0  0  0  0  0  0
  1  3  1  0  0  0  0
  1  9  1  0  0  0  0
  1 10  1  0  0  0  0
  3  5  1  0  0  0  0
  5  7  1  0  0  0  0
  7  8  1  0  0  0  0
  8  9  1  0  0  0  0
 10 11  1  0  0  0  0
 11 12  1  0  0  0  0
  2 12  1  0  0  0  0
  4 12  2  0  0  0  0
  6 12  2  0  0  0  0
M  END
$$$$
