ligand
  PyMOL2.2          3D                             0

 10  9  0  0  0  0  0  0  0  0999 V2000
   32.3850   16.2180   19.3540 N   0  0  0  0  0  0  0  0  0  0  0  0
   31.7660   16.9520   20.4980 C   0  0  0  0  0  0  0  0  0  0  0  0
   32.8260   17.4420   21.4840 C   0  0  0  0  0  0  0  0  0  0  0  0
   34.0130   17.1570   21.3350 O   0  0  0  0  0  0  0  0  0  0  0  0
   30.7020   16.0910   21.1890 C   0  0  0  0  0  0  0  0  0  0  0  0
   29.3880   16.0280   20.4110 C   0  0  0  0  0  0  0  0  0  0  0  0
   28.3260   15.2030   21.1250 C   0  0  0  0  0  0  0  0  0  0  0  0
   27.0290   15.1610   20.3230 C   0  0  0  0  0  0  0  0  0  0  0  0
   27.1440   14.3690   19.0500 N   0  0  0  0  0  0  0  0  0  0  0  0
   32.5480   18.1600   22.4490 O   0  0  0  0  0  0  0  0  0  0  0  0
  1  2  1  0  0  0  0
  2  3  1  0  0  0  0
  2  5  1  0  0  0  0
  3  4  4  0  0  0  0
  3 10  4  0  0  0  0
  5  6  1  0  0  0  0
  6  7  1  0  0  0  0
  7  8  1  0  0  0  0
  8  9  1  0  0  0  0
M  END
$$$$
