ligand
  PyMOL2.3          3D                             0

 42 45  0  0  0  0  0  0  0  0999 V2000
    7.9330   -0.2080    3.4150 C   0  0  0  0  0  0  0  0  0  0  0  0
    8.2770    0.1240    4.7710 O   0  0  0  0  0  0  0  0  0  0  0  0
   11.4790    2.1030    6.9220 C   0  0  0  0  0  0  0  0  0  0  0  0
   12.8050    2.6820    7.2920 N   0  0  0  0  0  0  0  0  0  0  0  0
    8.5330    3.8250    3.5230 C   0  0  0  0  0  0  0  0  0  0  0  0
    6.6690    7.2650    1.2700 C   0  0  0  0  0  0  0  0  0  0  0  0
    6.3790   -0.3030    3.3500 C   0  0  0  0  0  0  0  0  0  0  0  0
    5.7170    0.8700    3.9470 N   0  0  0  0  0  0  0  0  0  0  0  0
   11.5640    0.5320    6.7590 C   0  0  0  0  0  0  0  0  0  0  0  0
    8.9610    4.4770    2.1730 C   0  0  0  0  0  0  0  0  0  0  0  0
   10.0380    5.4380    2.2980 O   0  0  0  0  0  0  0  0  0  0  0  0
    6.9060    8.8010    1.5010 C   0  0  0  0  0  0  0  0  0  0  0  0
    6.6290    9.1760    2.9200 N   0  0  0  0  0  0  0  0  0  0  0  0
    5.8380   -1.5420    4.0870 C   0  0  0  0  0  0  0  0  0  0  0  0
    4.4160   -1.6100    3.9680 O   0  0  0  0  0  0  0  0  0  0  0  0
   10.1350   -0.0210    6.3920 C   0  0  0  0  0  0  0  0  0  0  0  0
   10.1750   -1.5010    6.2450 N   0  0  0  0  0  0  0  0  0  0  0  0
    7.6270    5.0380    1.6780 C   0  0  0  0  0  0  0  0  0  0  0  0
    7.4130    6.4080    2.1450 O   0  0  0  0  0  0  0  0  0  0  0  0
    5.9810    9.6360    0.4940 C   0  0  0  0  0  0  0  0  0  0  0  0
    6.5300    9.5330   -0.8390 O   0  0  0  0  0  0  0  0  0  0  0  0
    6.5130   -2.8130    3.5230 C   0  0  0  0  0  0  0  0  0  0  0  0
    6.0160   -3.9580    4.1760 O   0  0  0  0  0  0  0  0  0  0  0  0
    9.6130    0.6310    5.0510 C   0  0  0  0  0  0  0  0  0  0  0  0
    6.5420    4.0900    2.2160 C   0  0  0  0  0  0  0  0  0  0  0  0
    7.1040    3.6200    3.4390 O   0  0  0  0  0  0  0  0  0  0  0  0
    4.4590    9.1350    0.4870 C   0  0  0  0  0  0  0  0  0  0  0  0
    3.8840    9.4860    1.7450 O   0  0  0  0  0  0  0  0  0  0  0  0
    8.0620   -2.6960    3.7140 C   0  0  0  0  0  0  0  0  0  0  0  0
    8.5520   -1.4960    3.0360 O   0  0  0  0  0  0  0  0  0  0  0  0
    9.5570    2.1730    5.1170 C   0  0  0  0  0  0  0  0  0  0  0  0
    9.2410    2.6020    3.7640 O   0  0  0  0  0  0  0  0  0  0  0  0
    6.1790    2.9020    1.2720 C   0  0  0  0  0  0  0  0  0  0  0  0
    4.7810    2.6430    1.3580 O   0  0  0  0  0  0  0  0  0  0  0  0
    4.3880    7.5760    0.2710 C   0  0  0  0  0  0  0  0  0  0  0  0
    5.1850    6.9760    1.3550 O   0  0  0  0  0  0  0  0  0  0  0  0
    8.8060   -3.8990    3.1820 C   0  0  0  0  0  0  0  0  0  0  0  0
    9.2050   -4.7310    4.2440 O   0  0  0  0  0  0  0  0  0  0  0  0
   10.9590    2.7540    5.5780 C   0  0  0  0  0  0  0  0  0  0  0  0
   10.8640    4.1660    5.7850 O   0  0  0  0  0  0  0  0  0  0  0  0
    2.9110    6.9870    0.2840 C   0  0  0  0  0  0  0  0  0  0  0  0
    2.1630    7.1570    1.5600 N   0  0  0  0  0  0  0  0  0  0  0  0
  1  2  1  0  0  0  0
  1  7  1  0  0  0  0
  1 30  1  0  0  0  0
  2 24  1  0  0  0  0
  3  4  1  0  0  0  0
  3  9  1  0  0  0  0
  3 39  1  0  0  0  0
  5 10  1  0  0  0  0
  5 26  1  0  0  0  0
  6 12  1  0  0  0  0
  6 36  1  0  0  0  0
  7  8  1  0  0  0  0
  7 14  1  0  0  0  0
  9 16  1  0  0  0  0
 10 11  1  0  0  0  0
 10 18  1  0  0  0  0
 12 13  1  0  0  0  0
 12 20  1  0  0  0  0
 14 15  1  0  0  0  0
 14 22  1  0  0  0  0
 16 17  1  0  0  0  0
 16 24  1  0  0  0  0
 18 19  1  0  0  0  0
 18 25  1  0  0  0  0
  6 19  1  0  0  0  0
 20 21  1  0  0  0  0
 20 27  1  0  0  0  0
 22 23  1  0  0  0  0
 22 29  1  0  0  0  0
 24 31  1  0  0  0  0
 25 26  1  0  0  0  0
 25 33  1  0  0  0  0
 27 28  1  0  0  0  0
 27 35  1  0  0  0  0
 29 30  1  0  0  0  0
 29 37  1  0  0  0  0
 31 32  1  0  0  0  0
 31 39  1  0  0  0  0
  5 32  1  0  0  0  0
 33 34  1  0  0  0  0
 35 36  1  0  0  0  0
 35 41  1  0  0  0  0
 37 38  1  0  0  0  0
 39 40  1  0  0  0  0
 41 42  1  0  0  0  0
M  END
$$$$
