ligand
  PyMOL2.3          3D                             0

 27 29  0  0  0  0  0  0  0  0999 V2000
   13.6570   -3.3830   10.7040 N   0  0  0  0  0  0  0  0  0  0  0  0
   13.8550   -4.6810   11.4200 C   0  0  0  0  0  0  0  0  0  0  0  0
   15.2280   -4.7220   12.1270 C   0  0  0  0  0  0  0  0  0  0  0  0
   15.5550   -5.6830   12.8300 O   0  0  0  0  0  0  0  0  0  0  0  0
   13.6820   -5.8340   10.4370 C   0  0  0  0  0  0  0  0  0  0  0  0
   13.3760   -7.1740   11.0850 C   0  0  0  0  0  0  0  0  0  0  0  0
   13.1920   -8.5260    9.8870 S   0  0  0  0  0  0  0  0  0  0  0  0
   13.6840   -9.9470   10.9040 C   0  0  0  0  0  0  0  0  0  0  0  0
   14.5720   -8.3850    8.7400 C   0  0  0  0  0  0  0  0  0  0  0  0
   14.0440   -7.9700    7.3800 C   0  0  0  0  0  0  0  0  0  0  0  0
   13.1690   -6.8550    7.4530 O   0  0  0  0  0  0  0  0  0  0  0  0
   15.1660   -7.5920    6.4440 C   0  0  0  0  0  0  0  0  0  0  0  0
   15.6940   -8.7210    5.8090 O   0  0  0  0  0  0  0  0  0  0  0  0
   14.4520   -6.6900    5.4840 C   0  0  0  0  0  0  0  0  0  0  0  0
   13.8840   -7.4700    4.4490 O   0  0  0  0  0  0  0  0  0  0  0  0
   13.3590   -6.0380    6.3210 C   0  0  0  0  0  0  0  0  0  0  0  0
   16.0560   -3.7980   12.0270 O   0  0  0  0  0  0  0  0  0  0  0  0
   17.0560   -2.7610    8.1790 N   0  0  0  0  0  0  0  0  0  0  0  0
   17.1810   -4.1140    7.8990 C   0  0  0  0  0  0  0  0  0  0  0  0
   16.1000   -4.8470    7.4240 N   0  0  0  0  0  0  0  0  0  0  0  0
   14.9240   -4.2270    7.2170 C   0  0  0  0  0  0  0  0  0  0  0  0
   14.7900   -2.8610    7.4810 C   0  0  0  0  0  0  0  0  0  0  0  0
   15.8510   -2.1240    7.9740 C   0  0  0  0  0  0  0  0  0  0  0  0
   15.7160   -0.8320    8.2330 N   0  0  0  0  0  0  0  0  0  0  0  0
   13.5380   -2.5000    7.1790 N   0  0  0  0  0  0  0  0  0  0  0  0
   12.8800   -3.5920    6.7310 C   0  0  0  0  0  0  0  0  0  0  0  0
   13.7260   -4.6730    6.7430 N   0  0  0  0  0  0  0  0  0  0  0  0
  1  2  1  0  0  0  0
  2  3  1  0  0  0  0
  2  5  1  0  0  0  0
  3  4  4  0  0  0  0
  3 17  4  0  0  0  0
  5  6  1  0  0  0  0
  6  7  1  0  0  0  0
  7  8  1  0  0  0  0
  7  9  1  0  0  0  0
  9 10  1  0  0  0  0
 10 11  1  0  0  0  0
 10 12  1  0  0  0  0
 11 16  1  0  0  0  0
 12 13  1  0  0  0  0
 12 14  1  0  0  0  0
 14 15  1  0  0  0  0
 14 16  1  0  0  0  0
 16 27  1  0  0  0  0
 18 19  4  0  0  0  0
 19 20  4  0  0  0  0
 20 21  4  0  0  0  0
 21 22  4  0  0  0  0
 22 23  4  0  0  0  0
 18 23  4  0  0  0  0
 23 24  1  0  0  0  0
 22 25  4  0  0  0  0
 25 26  4  0  0  0  0
 21 27  4  0  0  0  0
 26 27  4  0  0  0  0
M  END
$$$$
