ligand
  PyMOL2.2          3D                             0

 14 13  0  0  0  0  0  0  0  0999 V2000
   45.0500   26.7660   34.5370 N   0  0  0  0  0  0  0  0  0  0  0  0
   43.8600   26.2120   35.1640 C   0  0  0  0  0  0  0  0  0  0  0  0
   43.7690   24.6860   34.8870 C   0  0  0  0  0  0  0  0  0  0  0  0
   42.8530   23.8220   35.8250 C   0  0  0  0  0  0  0  0  0  0  0  0
   43.3330   22.4150   36.0830 N   0  0  0  0  0  0  0  0  0  0  0  0
   42.4190   21.6160   36.9500 C   0  0  0  0  0  0  0  0  0  0  0  0
   42.2290   20.1820   36.4900 C   0  0  0  0  0  0  0  0  0  0  0  0
   41.2150   19.4290   37.3320 C   0  0  0  0  0  0  0  0  0  0  0  0
   40.1550   18.9460   36.4180 C   0  0  0  0  0  0  0  0  0  0  0  0
   38.9120   19.7540   36.3990 N   0  0  0  0  0  0  0  0  0  0  0  0
   38.8390   20.7080   35.2640 C   0  0  0  0  0  0  0  0  0  0  0  0
   38.2860   20.1330   33.9260 C   0  0  0  0  0  0  0  0  0  0  0  0
   38.9580   20.8870   32.7650 C   0  0  0  0  0  0  0  0  0  0  0  0
   38.8010   22.3300   32.9280 N   0  0  0  0  0  0  0  0  0  0  0  0
  1  2  1  0  0  0  0
  2  3  1  0  0  0  0
  3  4  1  0  0  0  0
  4  5  1  0  0  0  0
  5  6  1  0  0  0  0
  6  7  1  0  0  0  0
  7  8  1  0  0  0  0
  8  9  1  0  0  0  0
  9 10  1  0  0  0  0
 10 11  1  0  0  0  0
 11 12  1  0  0  0  0
 12 13  1  0  0  0  0
 13 14  1  0  0  0  0
M  END
$$$$
