ligand
  PyMOL2.2          3D                             0

 10 11  0  0  0  0  0  0  0  0999 V2000
   20.2550   -4.4400    1.9450 N   0  0  0  0  0  0  0  0  0  0  0  0
   19.2510   -5.2020    2.3370 C   0  0  0  0  0  0  0  0  0  0  0  0
   18.0790   -4.6000    2.8070 N   0  0  0  0  0  0  0  0  0  0  0  0
   17.9930   -3.2640    2.8690 C   0  0  0  0  0  0  0  0  0  0  0  0
   19.0110   -2.5010    2.4780 C   0  0  0  0  0  0  0  0  0  0  0  0
   20.1300   -3.0480    2.0090 C   0  0  0  0  0  0  0  0  0  0  0  0
   21.0590   -2.3410    1.6220 O   0  0  0  0  0  0  0  0  0  0  0  0
   18.6840   -1.2340    2.7170 N   0  0  0  0  0  0  0  0  0  0  0  0
   17.4660   -1.2110    3.2490 C   0  0  0  0  0  0  0  0  0  0  0  0
   17.0370   -2.4670    3.3350 N   0  0  0  0  0  0  0  0  0  0  0  0
  1  2  4  0  0  0  0
  1  6  4  0  0  0  0
  2  3  4  0  0  0  0
  3  4  4  0  0  0  0
  4  5  4  0  0  0  0
  4 10  4  0  0  0  0
  5  6  4  0  0  0  0
  5  8  4  0  0  0  0
  6  7  2  0  0  0  0
  8  9  4  0  0  0  0
  9 10  4  0  0  0  0
M  END
$$$$
