ligand
  PyMOL2.2          3D                             0

 44 50  0  0  0  0  0  0  0  0999 V2000
   -5.6720   34.5350  -12.7830 P   0  0  0  0  0  0  0  0  0  0  0  0
   -9.2410   35.6600  -16.6820 P   0  0  0  0  0  0  0  0  0  0  0  0
   -5.0130   35.5450  -11.8470 O   0  5  0  0  0  0  0  0  0  0  0  0
   -8.8120   34.8140  -17.8560 O   0  5  0  0  0  0  0  0  0  0  0  0
   -4.7220   33.3650  -12.8730 O   0  0  0  0  0  0  0  0  0  0  0  0
  -10.6560   36.1980  -16.9940 O   0  0  0  0  0  0  0  0  0  0  0  0
   -6.0560   36.7170  -14.0210 C   0  0  0  0  0  0  0  0  0  0  0  0
   -9.3120   35.3700  -14.1170 C   0  0  0  0  0  0  0  0  0  0  0  0
   -5.8660   35.3000  -14.1320 O   0  0  0  0  0  0  0  0  0  0  0  0
   -9.0490   34.6830  -15.3730 O   0  0  0  0  0  0  0  0  0  0  0  0
   -6.1840   37.3400  -15.4070 C   0  0  0  0  0  0  0  0  0  0  0  0
   -9.2230   34.2740  -12.9890 C   0  0  0  0  0  0  0  0  0  0  0  0
   -4.9900   37.5670  -15.8600 O   0  0  0  0  0  0  0  0  0  0  0  0
   -9.9810   33.3320  -13.3790 O   0  0  0  0  0  0  0  0  0  0  0  0
   -6.8620   36.4330  -16.4080 C   0  0  0  0  0  0  0  0  0  0  0  0
   -7.8340   33.6050  -12.9780 C   0  0  0  0  0  0  0  0  0  0  0  0
   -8.1520   36.8520  -16.5010 O   0  0  0  0  0  0  0  0  0  0  0  0
   -7.0650   34.0930  -11.9970 O   0  0  0  0  0  0  0  0  0  0  0  0
   -6.0970   36.7240  -17.7460 C   0  0  0  0  0  0  0  0  0  0  0  0
   -8.0670   32.0870  -12.8030 C   0  0  0  0  0  0  0  0  0  0  0  0
   -6.9030   37.6290  -18.6090 O   0  0  0  0  0  0  0  0  0  0  0  0
   -7.7890   31.6730  -11.3900 O   0  0  0  0  0  0  0  0  0  0  0  0
   -4.9720   37.2740  -17.4180 C   0  0  0  0  0  0  0  0  0  0  0  0
   -9.3160   31.9100  -13.0670 C   0  0  0  0  0  0  0  0  0  0  0  0
   -0.8250   35.6340  -20.4070 N   0  0  0  0  0  0  0  0  0  0  0  0
   -1.5880   36.7380  -20.6440 C   0  0  0  0  0  0  0  0  0  0  0  0
   -2.6290   37.0730  -19.8160 N   0  0  0  0  0  0  0  0  0  0  0  0
   -2.9010   36.2780  -18.7370 C   0  0  0  0  0  0  0  0  0  0  0  0
   -2.1640   35.1850  -18.4950 C   0  0  0  0  0  0  0  0  0  0  0  0
   -1.1020   34.8570  -19.3360 C   0  0  0  0  0  0  0  0  0  0  0  0
   -0.2540   33.7410  -19.1930 N   0  0  0  0  0  0  0  0  0  0  0  0
   -2.6460   34.6000  -17.3780 N   0  0  0  0  0  0  0  0  0  0  0  0
   -3.6990   35.3450  -16.9360 C   0  0  0  0  0  0  0  0  0  0  0  0
   -3.8470   36.3890  -17.7620 N   0  0  0  0  0  0  0  0  0  0  0  0
  -10.4300   27.1630  -14.8960 N   0  0  0  0  0  0  0  0  0  0  0  0
  -10.3110   27.5260  -13.5920 C   0  0  0  0  0  0  0  0  0  0  0  0
  -10.0050   28.8200  -13.2770 N   0  0  0  0  0  0  0  0  0  0  0  0
   -9.8260   29.7410  -14.2620 C   0  0  0  0  0  0  0  0  0  0  0  0
   -9.9470   29.3890  -15.5580 C   0  0  0  0  0  0  0  0  0  0  0  0
  -10.2550   28.0680  -15.8700 C   0  0  0  0  0  0  0  0  0  0  0  0
  -10.4120   27.4720  -17.1720 N   0  0  0  0  0  0  0  0  0  0  0  0
   -9.7150   30.4970  -16.3020 N   0  0  0  0  0  0  0  0  0  0  0  0
   -9.4560   31.5340  -15.4550 C   0  0  0  0  0  0  0  0  0  0  0  0
   -9.5300   31.0570  -14.1960 N   0  0  0  0  0  0  0  0  0  0  0  0
  1  3  1  0  0  0  0
  1  5  2  0  0  0  0
  1  9  1  0  0  0  0
  1 18  1  0  0  0  0
  2  4  1  0  0  0  0
  2  6  2  0  0  0  0
  2 10  1  0  0  0  0
  7 11  1  0  0  0  0
  8 12  1  0  0  0  0
  7  9  1  0  0  0  0
  8 10  1  0  0  0  0
 11 13  1  0  0  0  0
 11 15  1  0  0  0  0
 12 14  1  0  0  0  0
 12 16  1  0  0  0  0
 13 23  1  0  0  0  0
 14 24  1  0  0  0  0
 15 17  1  0  0  0  0
 15 19  1  0  0  0  0
 16 18  1  0  0  0  0
 16 20  1  0  0  0  0
  2 17  1  0  0  0  0
 19 21  1  0  0  0  0
 19 23  1  0  0  0  0
 20 22  1  0  0  0  0
 20 24  1  0  0  0  0
 23 34  1  0  0  0  0
 24 44  1  0  0  0  0
 25 26  4  0  0  0  0
 26 27  4  0  0  0  0
 27 28  4  0  0  0  0
 28 29  4  0  0  0  0
 29 30  4  0  0  0  0
 25 30  4  0  0  0  0
 30 31  1  0  0  0  0
 29 32  4  0  0  0  0
 32 33  4  0  0  0  0
 28 34  4  0  0  0  0
 33 34  4  0  0  0  0
 35 36  4  0  0  0  0
 36 37  4  0  0  0  0
 37 38  4  0  0  0  0
 38 39  4  0  0  0  0
 39 40  4  0  0  0  0
 35 40  4  0  0  0  0
 40 41  1  0  0  0  0
 39 42  4  0  0  0  0
 42 43  4  0  0  0  0
 38 44  4  0  0  0  0
 43 44  4  0  0  0  0
M  END
$$$$
