1eht cryst
  MOE2001           3D

 14 15  0  0  0  0  0  0  0  0  1 V2000
   -4.8800   -7.2370    9.7250 C   0  0  0  0  0  0  0  0  0  0  0  0
   -5.2720   -6.6780   10.9380 N   0  0  0  0  0  0  0  0  0  0  0  0
   -5.4450   -7.5150   12.0100 C   0  0  0  0  0  0  0  0  0  0  0  0
   -5.2420   -8.7140   11.8090 O   0  0  0  0  0  0  0  0  0  0  0  0
   -5.8280   -7.1080   13.2630 N   0  0  0  0  0  0  0  0  0  0  0  0
   -5.9950   -7.9730   14.3320 C   0  0  0  0  0  0  0  0  0  0  0  0
   -6.0290   -5.7620   13.3490 C   0  0  0  0  0  0  0  0  0  0  0  0
   -5.8550   -4.9380   12.2750 C   0  0  0  0  0  0  0  0  0  0  0  0
   -5.4620   -5.3350   10.9840 C   0  0  0  0  0  0  0  0  0  0  0  0
   -5.2910   -4.6350    9.9870 O   0  0  0  0  0  0  0  0  0  0  0  0
   -6.1440   -3.6590   12.7310 N   0  0  0  0  0  0  0  0  0  0  0  0
   -6.4710   -3.7950   14.0380 C   0  0  0  0  0  0  0  0  0  0  0  0
   -6.4190   -5.0270   14.4630 N   0  0  0  0  0  0  0  0  0  0  0  0
   -6.1190   -2.8290   12.2120 H   0  0  0  0  0  0  0  0  0  0  0  0
  1  2  1  0  0  0  0
  2  9  1  0  0  0  0
  2  3  1  0  0  0  0
  3  5  1  0  0  0  0
  3  4  2  0  0  0  0
  5  6  1  0  0  0  0
  5  7  1  0  0  0  0
  7  8  2  0  0  0  0
  7 13  1  0  0  0  0
  8  9  1  0  0  0  0
  8 11  1  0  0  0  0
  9 10  2  0  0  0  0
 11 14  1  0  0  0  0
 11 12  1  0  0  0  0
 12 13  2  0  0  0  0
M  END
$$$$
