ligand
  PyMOL2.2          3D                             0

 10 11  0  0  0  0  0  0  0  0999 V2000
    5.9037   16.9592    2.0283 N   0  0  0  0  0  0  0  0  0  0  0  0
    6.7263   18.0018    1.8620 C   0  0  0  0  0  0  0  0  0  0  0  0
    7.1152   18.9128    2.7528 N   0  0  0  0  0  0  0  0  0  0  0  0
    6.5594   18.6750    3.9510 C   0  0  0  0  0  0  0  0  0  0  0  0
    5.6961   17.6465    4.2759 C   0  0  0  0  0  0  0  0  0  0  0  0
    5.3607   16.7464    3.2452 C   0  0  0  0  0  0  0  0  0  0  0  0
    4.5391   15.7059    3.4156 N   0  0  0  0  0  0  0  0  0  0  0  0
    5.3270   17.7180    5.6089 N   0  0  0  0  0  0  0  0  0  0  0  0
    5.9644   18.7741    6.0558 C   0  0  0  0  0  0  0  0  0  0  0  0
    6.7267   19.3999    5.1088 N   0  0  0  0  0  0  0  0  0  0  0  0
  1  2  4  0  0  0  0
  2  3  4  0  0  0  0
  3  4  4  0  0  0  0
  4  5  4  0  0  0  0
  5  6  4  0  0  0  0
  1  6  4  0  0  0  0
  6  7  1  0  0  0  0
  5  8  4  0  0  0  0
  8  9  4  0  0  0  0
  4 10  4  0  0  0  0
  9 10  4  0  0  0  0
M  END
$$$$
