ligand
  PyMOL2.2          3D                             0

 26 27  0  0  0  0  0  0  0  0999 V2000
   -0.1030  -19.0400  -86.4060 C   0  0  0  0  0  0  0  0  0  0  0  0
    1.7420  -18.6250  -94.4150 C   0  0  0  0  0  0  0  0  0  0  0  0
   -0.0630  -14.5640  -99.0460 P   0  0  0  0  0  0  0  0  0  0  0  0
    2.6160  -14.2070  -99.6510 P   0  0  0  0  0  0  0  0  0  0  0  0
    2.2690  -17.6920  -91.4480 C   0  0  0  0  0  0  0  0  0  0  0  0
    0.4140  -18.5730  -90.0540 C   0  0  0  0  0  0  0  0  0  0  0  0
    1.6810  -18.0060  -90.1010 C   0  0  0  0  0  0  0  0  0  0  0  0
    2.3740  -17.8030  -88.9040 C   0  0  0  0  0  0  0  0  0  0  0  0
    3.5980  -17.2800  -88.8260 N   0  0  0  0  0  0  0  0  0  0  0  0
    1.7750  -18.1510  -87.7210 N   0  0  0  0  0  0  0  0  0  0  0  0
    0.5190  -18.6890  -87.7050 C   0  0  0  0  0  0  0  0  0  0  0  0
   -0.1720  -18.9110  -88.8530 N   0  0  0  0  0  0  0  0  0  0  0  0
   -0.8130  -15.4860  -99.9870 O   0  5  0  0  0  0  0  0  0  0  0  0
    2.5020  -12.8160  -99.0690 O   0  0  0  0  0  0  0  0  0  0  0  0
   -0.3750  -15.5050  -93.3440 S   0  0  0  0  0  0  0  0  0  0  0  0
    0.5640  -16.0140  -92.1130 C   0  0  0  0  0  0  0  0  0  0  0  0
   -0.3150  -13.1440  -99.5460 O   0  0  0  0  0  0  0  0  0  0  0  0
    2.3760  -14.2120 -101.1470 O   0  5  0  0  0  0  0  0  0  0  0  0
    1.3430  -17.1200  -92.3960 N   0  0  0  0  0  0  0  0  0  0  0  0
    1.4640  -15.0840  -98.9840 O   0  0  0  0  0  0  0  0  0  0  0  0
    3.9960  -14.7440  -99.3300 O   0  0  0  0  0  0  0  0  0  0  0  0
    1.1090  -17.5020  -93.6940 C   0  0  0  0  0  0  0  0  0  0  0  0
    0.1690  -16.6580  -94.3060 C   0  0  0  0  0  0  0  0  0  0  0  0
   -0.4530  -16.5730  -95.6780 C   0  0  0  0  0  0  0  0  0  0  0  0
    0.4100  -15.7380  -96.6300 C   0  0  0  0  0  0  0  0  0  0  0  0
   -0.4320  -14.9870  -97.4960 O   0  0  0  0  0  0  0  0  0  0  0  0
  3 13  1  0  0  0  0
  3 17  2  0  0  0  0
  3 20  1  0  0  0  0
  4 14  1  0  0  0  0
  4 18  1  0  0  0  0
  4 21  2  0  0  0  0
  5 19  1  0  0  0  0
  5  7  1  0  0  0  0
  6  7  4  0  0  0  0
  7  8  4  0  0  0  0
  8  9  1  0  0  0  0
  8 10  4  0  0  0  0
  1 11  1  0  0  0  0
 10 11  4  0  0  0  0
  6 12  4  0  0  0  0
 11 12  4  0  0  0  0
 15 23  4  0  0  0  0
 15 16  4  0  0  0  0
 16 19  4  0  0  0  0
 19 22  4  0  0  0  0
  4 20  1  0  0  0  0
  2 22  1  0  0  0  0
 22 23  4  0  0  0  0
 23 24  1  0  0  0  0
 24 25  1  0  0  0  0
 25 26  1  0  0  0  0
  3 26  1  0  0  0  0
M  END
$$$$
