1uts_lig
 OpenBabel02221317003D

 67 70  0  0  0  0  0  0  0  0999 V2000
    5.2650    4.8110   21.0040 N   0  0  0  0  0  0  0  0  0  0  0  0
    2.8840    4.7660   20.3990 C   0  0  0  0  0  0  0  0  0  0  0  0
    2.4820    2.6710   15.8470 C   0  0  0  0  0  0  0  0  0  0  0  0
    1.8860    4.2030   19.3830 C   0  0  0  0  0  0  0  0  0  0  0  0
    2.2750    4.6040   18.0610 O   0  0  0  0  0  0  0  0  0  0  0  0
    4.2450    4.0950   20.2050 C   0  0  0  0  0  0  0  0  0  0  0  0
    3.1510    2.3920   17.1380 N   0  0  0  0  0  0  0  0  0  0  0  0
    4.1560    1.3110   16.9580 C   0  0  0  0  0  0  0  0  0  0  0  0
    3.4980   -0.0520   17.1920 C   0  0  0  0  0  0  0  0  0  0  0  0
    3.9280   -0.5880   18.5030 N   0  0  0  0  0  0  0  0  0  0  0  0
    5.3460   -1.0400   18.4090 C   0  0  0  0  0  0  0  0  0  0  0  0
    3.0440   -1.7250   18.8860 C   0  0  0  0  0  0  0  0  0  0  0  0
    5.7950   -1.6010   19.7680 C   0  0  0  0  0  0  0  0  0  0  0  0
    3.4950   -2.2900   20.2450 C   0  0  0  0  0  0  0  0  0  0  0  0
    4.9120   -2.7390   20.1510 N   0  0  0  0  0  0  0  0  0  0  0  0
   -1.0850    5.1500   16.4350 C   0  0  0  0  0  0  0  0  0  0  0  0
   -5.5010    3.8380   11.9770 N   0  0  0  0  0  0  0  0  0  0  0  0
   -1.0180    4.2460   15.3480 C   0  0  0  0  0  0  0  0  0  0  0  0
    0.1410    3.4460   15.1630 C   0  0  0  0  0  0  0  0  0  0  0  0
    1.2330    3.5480   16.0680 C   0  0  0  0  0  0  0  0  0  0  0  0
    1.1700    4.4720   17.1540 C   0  0  0  0  0  0  0  0  0  0  0  0
    0.0060    5.2680   17.3360 C   0  0  0  0  0  0  0  0  0  0  0  0
   -6.4110    3.3700   12.9520 C   0  0  0  0  0  0  0  0  0  0  0  0
   -5.7760    3.2220   14.2060 C   0  0  0  0  0  0  0  0  0  0  0  0
   -3.3600    3.6880   14.9200 C   0  0  0  0  0  0  0  0  0  0  0  0
   -2.0980    4.1520   14.4590 C   0  0  0  0  0  0  0  0  0  0  0  0
   -1.9350    4.5270   13.0970 C   0  0  0  0  0  0  0  0  0  0  0  0
   -3.0330    4.4400   12.1990 C   0  0  0  0  0  0  0  0  0  0  0  0
   -4.3050    3.9860   12.6690 C   0  0  0  0  0  0  0  0  0  0  0  0
   -4.4680    3.6140   14.0160 C   0  0  0  0  0  0  0  0  0  0  0  0
   -5.6760    4.0240   11.0300 H   0  0  0  0  0  0  0  0  0  0  0  0
    6.1680    4.3220   20.9260 H   0  0  0  0  0  0  0  0  0  0  0  0
    5.3650    5.7730   20.6500 H   0  0  0  0  0  0  0  0  0  0  0  0
    4.9730    4.8370   21.9910 H   0  0  0  0  0  0  0  0  0  0  0  0
    2.5260    4.5720   21.4000 H   0  0  0  0  0  0  0  0  0  0  0  0
    3.1680    3.1830   15.1900 H   0  0  0  0  0  0  0  0  0  0  0  0
    2.1850    1.7360   15.3950 H   0  0  0  0  0  0  0  0  0  0  0  0
    2.9840    5.8310   20.2540 H   0  0  0  0  0  0  0  0  0  0  0  0
    4.1890    3.0670   20.5310 H   0  0  0  0  0  0  0  0  0  0  0  0
    2.4480    2.0990   17.8320 H   0  0  0  0  0  0  0  0  0  0  0  0
    3.6230    3.2450   17.4690 H   0  0  0  0  0  0  0  0  0  0  0  0
    4.5170    4.1280   19.1610 H   0  0  0  0  0  0  0  0  0  0  0  0
    4.9580    1.4490   17.6670 H   0  0  0  0  0  0  0  0  0  0  0  0
    4.5560    1.3490   15.9540 H   0  0  0  0  0  0  0  0  0  0  0  0
    3.7960   -0.7350   16.4100 H   0  0  0  0  0  0  0  0  0  0  0  0
    2.4240    0.0590   17.1830 H   0  0  0  0  0  0  0  0  0  0  0  0
    3.8550    0.1530   19.2140 H   0  0  0  0  0  0  0  0  0  0  0  0
    5.4290   -1.8090   17.6560 H   0  0  0  0  0  0  0  0  0  0  0  0
    5.9730   -0.2030   18.1400 H   0  0  0  0  0  0  0  0  0  0  0  0
    2.0240   -1.3780   18.9620 H   0  0  0  0  0  0  0  0  0  0  0  0
    3.1070   -2.4990   18.1370 H   0  0  0  0  0  0  0  0  0  0  0  0
    5.7300   -0.8270   20.5170 H   0  0  0  0  0  0  0  0  0  0  0  0
    6.8160   -1.9460   19.6950 H   0  0  0  0  0  0  0  0  0  0  0  0
    2.8680   -3.1270   20.5130 H   0  0  0  0  0  0  0  0  0  0  0  0
    3.4090   -1.5220   21.0000 H   0  0  0  0  0  0  0  0  0  0  0  0
    5.2130   -3.1090   21.0640 H   0  0  0  0  0  0  0  0  0  0  0  0
    4.9870   -3.4820   19.4420 H   0  0  0  0  0  0  0  0  0  0  0  0
    0.8990    4.5830   19.6040 H   0  0  0  0  0  0  0  0  0  0  0  0
    1.8780    3.1260   19.4450 H   0  0  0  0  0  0  0  0  0  0  0  0
   -1.9630    5.7530   16.5680 H   0  0  0  0  0  0  0  0  0  0  0  0
   -7.4490    3.1590   12.7380 H   0  0  0  0  0  0  0  0  0  0  0  0
    0.1950    2.7630   14.3350 H   0  0  0  0  0  0  0  0  0  0  0  0
   -3.4880    3.4050   15.9540 H   0  0  0  0  0  0  0  0  0  0  0  0
   -0.0470    5.9680   18.1570 H   0  0  0  0  0  0  0  0  0  0  0  0
   -2.9100    4.7270   11.1660 H   0  0  0  0  0  0  0  0  0  0  0  0
   -6.2290    2.8800   15.1240 H   0  0  0  0  0  0  0  0  0  0  0  0
   -0.9800    4.8830   12.7460 H   0  0  0  0  0  0  0  0  0  0  0  0
  1  6  1  0  0  0  0
  1 32  1  0  0  0  0
  1 33  1  0  0  0  0
  1 34  1  0  0  0  0
  2  4  1  0  0  0  0
  2 35  1  0  0  0  0
  2 38  1  0  0  0  0
  3  7  1  0  0  0  0
  3 36  1  0  0  0  0
  3 37  1  0  0  0  0
  4  5  1  0  0  0  0
  4 58  1  0  0  0  0
  4 59  1  0  0  0  0
  6  2  1  0  0  0  0
  6 39  1  0  0  0  0
  6 42  1  0  0  0  0
  7  8  1  0  0  0  0
  7 40  1  0  0  0  0
  7 41  1  0  0  0  0
  8  9  1  0  0  0  0
  8 43  1  0  0  0  0
  8 44  1  0  0  0  0
  9 10  1  0  0  0  0
  9 45  1  0  0  0  0
  9 46  1  0  0  0  0
 10 11  1  0  0  0  0
 10 12  1  0  0  0  0
 10 47  1  0  0  0  0
 11 13  1  0  0  0  0
 11 48  1  0  0  0  0
 11 49  1  0  0  0  0
 12 50  1  0  0  0  0
 12 51  1  0  0  0  0
 13 15  1  0  0  0  0
 13 52  1  0  0  0  0
 13 53  1  0  0  0  0
 14 12  1  0  0  0  0
 14 54  1  0  0  0  0
 14 55  1  0  0  0  0
 15 14  1  0  0  0  0
 15 56  1  0  0  0  0
 15 57  1  0  0  0  0
 16 18  2  0  0  0  0
 16 22  1  0  0  0  0
 16 60  1  0  0  0  0
 17 23  1  0  0  0  0
 17 29  1  0  0  0  0
 17 31  1  0  0  0  0
 18 19  1  0  0  0  0
 18 26  1  0  0  0  0
 19 20  2  0  0  0  0
 19 62  1  0  0  0  0
 20  3  1  0  0  0  0
 20 21  1  0  0  0  0
 21  5  1  0  0  0  0
 21 22  2  0  0  0  0
 22 64  1  0  0  0  0
 23 24  2  0  0  0  0
 23 61  1  0  0  0  0
 24 30  1  0  0  0  0
 24 66  1  0  0  0  0
 25 26  2  0  0  0  0
 25 30  1  0  0  0  0
 25 63  1  0  0  0  0
 26 27  1  0  0  0  0
 27 28  2  0  0  0  0
 27 67  1  0  0  0  0
 28 29  1  0  0  0  0
 28 65  1  0  0  0  0
 29 30  2  0  0  0  0
M  END
$$$$
