ligand
  PyMOL2.2          3D                             0

 11 12  0  0  0  0  0  0  0  0999 V2000
   36.8500   -8.2520  -37.9620 N   0  0  0  0  0  0  0  0  0  0  0  0
   37.9140   -8.5780  -37.2130 C   0  0  0  0  0  0  0  0  0  0  0  0
   38.9530   -7.6160  -37.0250 N   0  0  0  0  0  0  0  0  0  0  0  0
   38.0200   -9.7820  -36.6410 N   0  0  0  0  0  0  0  0  0  0  0  0
   37.0270  -10.7270  -36.8110 C   0  0  0  0  0  0  0  0  0  0  0  0
   35.9340  -10.4110  -37.5750 C   0  0  0  0  0  0  0  0  0  0  0  0
   35.8370   -9.1150  -38.1790 C   0  0  0  0  0  0  0  0  0  0  0  0
   34.4410   -8.6590  -39.1670 S   0  0  0  0  0  0  0  0  0  0  0  0
   35.1070  -11.5050  -37.5880 N   0  0  0  0  0  0  0  0  0  0  0  0
   35.6840  -12.4830  -36.8420 C   0  0  0  0  0  0  0  0  0  0  0  0
   36.8700  -12.0230  -36.3530 N   0  0  0  0  0  0  0  0  0  0  0  0
  1  2  4  0  0  0  0
  2  3  1  0  0  0  0
  2  4  4  0  0  0  0
  4  5  4  0  0  0  0
  5  6  4  0  0  0  0
  5 11  4  0  0  0  0
  6  7  4  0  0  0  0
  6  9  4  0  0  0  0
  1  7  4  0  0  0  0
  7  8  1  0  0  0  0
  9 10  4  0  0  0  0
 10 11  4  0  0  0  0
M  END
$$$$
