lig.pdb
 OpenBabel03051820513D

 44 46  0  0  1  0  0  0  0  0999 V2000
    6.8160   21.2080    2.2910 P   0  0  0  0  0  0  0  0  0  0  0  0
    7.4500   22.5500    2.5650 O   0  0  0  0  0  0  0  0  0  0  0  0
    7.8430   20.1650    2.9910 O   0  0  0  0  0  0  0  0  0  0  0  0
    5.4970   20.8880    2.9490 O   0  0  0  0  0  0  0  0  0  0  0  0
    6.5740   21.1620    0.8620 O   0  0  0  0  0  0  0  0  0  0  0  0
    6.4120   19.7530    0.4330 P   0  0  1  0  0  0  0  0  0  0  0  0
    6.7820   19.6610   -0.9990 O   0  0  0  0  0  0  0  0  0  0  0  0
    7.3090   18.8760    1.2210 O   0  0  0  0  0  0  0  0  0  0  0  0
    5.0010   19.3360    0.6300 O   0  0  0  0  0  0  0  0  0  0  0  0
    4.3610   18.2770   -0.1860 P   0  0  1  0  0  0  0  0  0  0  0  0
    3.9760   18.6930   -1.5500 O   0  0  0  0  0  0  0  0  0  0  0  0
    5.0000   16.9450   -0.0990 O   0  0  0  0  0  0  0  0  0  0  0  0
    2.9250   18.0890    0.5360 O   0  0  0  0  0  0  0  0  0  0  0  0
    2.7650   17.3290    1.7190 C   0  0  0  0  0  0  0  0  0  0  0  0
    2.5680   15.8330    1.4370 C   0  0  1  0  0  0  0  0  0  0  0  0
    1.8190   15.2330    2.4740 O   0  0  0  0  0  0  0  0  0  0  0  0
    1.6800   15.5440    0.2140 C   0  0  1  0  0  0  0  0  0  0  0  0
    2.3070   15.7080   -1.0470 O   0  0  0  0  0  0  0  0  0  0  0  0
    1.2030   14.1120    0.4550 C   0  0  1  0  0  0  0  0  0  0  0  0
    2.0630   13.1550   -0.1380 O   0  0  0  0  0  0  0  0  0  0  0  0
    1.3230   14.0040    1.9740 C   0  0  2  0  0  0  0  0  0  0  0  0
    0.0900   13.5950    2.6800 N   0  0  0  0  0  0  0  0  0  0  0  0
   -1.2200   13.9370    2.4580 C   0  0  0  0  0  0  0  0  0  0  0  0
   -2.0530   13.4610    3.3470 N   0  0  0  0  0  0  0  0  0  0  0  0
   -1.2450   12.7280    4.2110 C   0  0  0  0  0  0  0  0  0  0  0  0
   -1.5660   12.0060    5.4050 C   0  0  0  0  0  0  0  0  0  0  0  0
   -2.6610   11.9130    5.9560 O   0  0  0  0  0  0  0  0  0  0  0  0
   -0.4530   11.3680    5.9690 N   0  0  0  0  0  0  0  0  0  0  0  0
    0.8170   11.4000    5.4130 C   0  0  0  0  0  0  0  0  0  0  0  0
    1.7740   10.6630    5.9880 N   0  0  0  0  0  0  0  0  0  0  0  0
    1.1230   12.1180    4.3200 N   0  0  0  0  0  0  0  0  0  0  0  0
    0.0570   12.7620    3.7710 C   0  0  0  0  0  0  0  0  0  0  0  0
    3.6440   17.4620    2.3450 H   0  0  0  0  0  0  0  0  0  0  0  0
    1.8910   17.7000    2.2520 H   0  0  0  0  0  0  0  0  0  0  0  0
    3.5450   15.3370    1.3840 H   0  0  0  0  0  0  0  0  0  0  0  0
    0.8090   16.1970    0.2630 H   0  0  0  0  0  0  0  0  0  0  0  0
    1.6590   15.5370   -1.7340 H   0  0  0  0  0  0  0  0  0  0  0  0
    0.1790   13.9740    0.1080 H   0  0  0  0  0  0  0  0  0  0  0  0
    2.0600   13.2960   -1.0880 H   0  0  0  0  0  0  0  0  0  0  0  0
    2.0860   13.2650    2.1830 H   0  0  0  0  0  0  0  0  0  0  0  0
   -1.5340   14.5610    1.6360 H   0  0  0  0  0  0  0  0  0  0  0  0
   -0.6060   10.8590    6.8360 H   0  0  0  0  0  0  0  0  0  0  0  0
    2.6840   10.6190    5.5570 H   0  0  0  0  0  0  0  0  0  0  0  0
    1.5700   10.1470    6.8280 H   0  0  0  0  0  0  0  0  0  0  0  0
  1  2  2  0  0  0  0
  1  4  1  0  0  0  0
  1  3  1  0  0  0  0
  5  1  1  0  0  0  0
  6  7  2  6  0  0  0
  6  9  1  0  0  0  0
  6  5  1  0  0  0  0
  6  8  1  0  0  0  0
 10 11  2  6  0  0  0
 10 12  1  0  0  0  0
 10 13  1  0  0  0  0
 10  9  1  0  0  0  0
 13 14  1  0  0  0  0
 14 34  1  0  0  0  0
 14 33  1  0  0  0  0
 15 35  1  6  0  0  0
 15 14  1  0  0  0  0
 15 16  1  0  0  0  0
 17 36  1  1  0  0  0
 17 19  1  0  0  0  0
 17 15  1  0  0  0  0
 18 17  1  0  0  0  0
 19 38  1  6  0  0  0
 19 21  1  0  0  0  0
 20 19  1  0  0  0  0
 21 40  1  1  0  0  0
 21 16  1  0  0  0  0
 21 22  1  0  0  0  0
 22 32  1  0  0  0  0
 23 22  1  0  0  0  0
 23 24  2  0  0  0  0
 24 25  1  0  0  0  0
 25 26  1  0  0  0  0
 26 27  2  0  0  0  0
 26 28  1  0  0  0  0
 28 42  1  0  0  0  0
 29 28  1  0  0  0  0
 29 30  1  0  0  0  0
 30 44  1  0  0  0  0
 31 29  2  0  0  0  0
 32 25  2  0  0  0  0
 32 31  1  0  0  0  0
 37 18  1  0  0  0  0
 39 20  1  0  0  0  0
 41 23  1  0  0  0  0
 43 30  1  0  0  0  0
M  END
$$$$
