1q8n_lig
 OpenBabel02221317003D

 50 52  0  0  1  0  0  0  0  0999 V2000
    0.6270    1.1660   -2.0070 C   0  0  2  0  0  0  0  0  0  0  0  0
    0.6610    2.2560   -3.2220 C   0  0  0  0  0  0  0  0  0  0  0  0
   -1.6570    2.8610    3.2210 N   0  0  0  0  0  0  0  0  0  0  0  0
   -0.1790    2.2180   -4.2840 C   0  0  0  0  0  0  0  0  0  0  0  0
    2.5430   -4.4850   -2.5620 N   0  0  0  0  0  0  0  0  0  0  0  0
   -0.1110    3.2240   -5.3690 C   0  0  0  0  0  0  0  0  0  0  0  0
    0.8090    4.2140   -5.3100 C   0  0  0  0  0  0  0  0  0  0  0  0
    1.7100    4.2770   -4.1830 C   0  0  0  0  0  0  0  0  0  0  0  0
    1.6400    3.3630   -3.2120 C   0  0  0  0  0  0  0  0  0  0  0  0
    0.0030    1.6260   -0.5720 C   0  0  0  0  0  0  0  0  0  0  0  0
    0.3870    1.0360    0.5790 C   0  0  0  0  0  0  0  0  0  0  0  0
   -0.1720    1.4430    1.8980 C   0  0  0  0  0  0  0  0  0  0  0  0
   -1.0960    2.4380    1.9720 C   0  0  0  0  0  0  0  0  0  0  0  0
   -1.5240    3.0940    0.7220 C   0  0  0  0  0  0  0  0  0  0  0  0
   -1.0120    2.7140   -0.4570 C   0  0  0  0  0  0  0  0  0  0  0  0
    1.2070   -0.3750   -2.2010 C   0  0  0  0  0  0  0  0  0  0  0  0
    0.6620   -1.4910   -1.3530 C   0  0  0  0  0  0  0  0  0  0  0  0
    1.0790   -2.7550   -1.4660 C   0  0  0  0  0  0  0  0  0  0  0  0
    2.1110   -3.1240   -2.4420 C   0  0  0  0  0  0  0  0  0  0  0  0
    2.6380   -2.1590   -3.2240 C   0  0  0  0  0  0  0  0  0  0  0  0
    2.1760   -0.7350   -3.1070 C   0  0  0  0  0  0  0  0  0  0  0  0
   -1.2850    2.2630    4.4670 C   0  0  0  0  0  0  0  0  0  0  0  0
   -2.6230    3.9150    3.2550 C   0  0  0  0  0  0  0  0  0  0  0  0
    1.9690   -5.5040   -1.7310 C   0  0  0  0  0  0  0  0  0  0  0  0
    3.5560   -4.8690   -3.5190 C   0  0  0  0  0  0  0  0  0  0  0  0
   -0.8620    1.4890   -4.3380 H   0  0  0  0  0  0  0  0  0  0  0  0
   -0.7420    3.1670   -6.1430 H   0  0  0  0  0  0  0  0  0  0  0  0
    0.8800    4.9000   -6.0280 H   0  0  0  0  0  0  0  0  0  0  0  0
    2.3920    5.0060   -4.1310 H   0  0  0  0  0  0  0  0  0  0  0  0
    2.2770    3.4290   -2.4460 H   0  0  0  0  0  0  0  0  0  0  0  0
    1.0740    0.2990    0.5310 H   0  0  0  0  0  0  0  0  0  0  0  0
    0.1350    0.9850    2.7320 H   0  0  0  0  0  0  0  0  0  0  0  0
   -2.2030    3.8290    0.7540 H   0  0  0  0  0  0  0  0  0  0  0  0
   -1.3220    3.1770   -1.2890 H   0  0  0  0  0  0  0  0  0  0  0  0
   -0.0450   -1.2780   -0.6790 H   0  0  0  0  0  0  0  0  0  0  0  0
    0.6810   -3.4590   -0.8790 H   0  0  0  0  0  0  0  0  0  0  0  0
    3.3380   -2.4190   -3.8820 H   0  0  0  0  0  0  0  0  0  0  0  0
    2.5910   -0.0170   -3.7160 H   0  0  0  0  0  0  0  0  0  0  0  0
   -1.6560    2.5320    5.3380 H   0  0  0  0  0  0  0  0  0  0  0  0
   -0.3790    1.7930    4.4940 H   0  0  0  0  0  0  0  0  0  0  0  0
   -0.7630    3.1070    4.5700 H   0  0  0  0  0  0  0  0  0  0  0  0
   -2.9060    4.0790    4.1960 H   0  0  0  0  0  0  0  0  0  0  0  0
   -3.4230    3.6380    2.7180 H   0  0  0  0  0  0  0  0  0  0  0  0
   -2.2300    4.7470    2.8700 H   0  0  0  0  0  0  0  0  0  0  0  0
    2.2200   -6.4520   -1.7670 H   0  0  0  0  0  0  0  0  0  0  0  0
    1.0490   -5.3010   -1.3340 H   0  0  0  0  0  0  0  0  0  0  0  0
    1.4680   -5.7290   -2.5670 H   0  0  0  0  0  0  0  0  0  0  0  0
    3.7190   -5.8500   -3.4550 H   0  0  0  0  0  0  0  0  0  0  0  0
    4.4080   -4.3850   -3.3040 H   0  0  0  0  0  0  0  0  0  0  0  0
    3.2550   -4.6340   -4.4430 H   0  0  0  0  0  0  0  0  0  0  0  0
  1  2  1  1  0  0  0
  1 10  1  0  0  0  0
  1 16  1  0  0  0  0
  2  4  2  0  0  0  0
  2  9  1  0  0  0  0
  4  6  1  0  0  0  0
  4 26  1  0  0  0  0
  6  7  2  0  0  0  0
  6 27  1  0  0  0  0
  7  8  1  0  0  0  0
  7 28  1  0  0  0  0
  8  9  2  0  0  0  0
  8 29  1  0  0  0  0
  9 30  1  0  0  0  0
 10 11  2  0  0  0  0
 10 15  1  0  0  0  0
 11 12  1  0  0  0  0
 11 31  1  0  0  0  0
 12 13  2  0  0  0  0
 12 32  1  0  0  0  0
 13  3  1  0  0  0  0
 13 14  1  0  0  0  0
 14 15  2  0  0  0  0
 14 33  1  0  0  0  0
 15 34  1  0  0  0  0
 16 17  2  0  0  0  0
 16 21  1  0  0  0  0
 17 18  1  0  0  0  0
 17 35  1  0  0  0  0
 18 19  2  0  0  0  0
 18 36  1  0  0  0  0
 19  5  1  0  0  0  0
 19 20  1  0  0  0  0
 20 21  2  0  0  0  0
 20 37  1  0  0  0  0
 21 38  1  0  0  0  0
 22  3  1  0  0  0  0
 22 39  1  0  0  0  0
 22 40  1  0  0  0  0
 22 41  1  0  0  0  0
 23  3  1  0  0  0  0
 23 42  1  0  0  0  0
 23 43  1  0  0  0  0
 23 44  1  0  0  0  0
 24  5  1  0  0  0  0
 24 45  1  0  0  0  0
 24 46  1  0  0  0  0
 24 47  1  0  0  0  0
 25  5  1  0  0  0  0
 25 48  1  0  0  0  0
 25 49  1  0  0  0  0
 25 50  1  0  0  0  0
M  END
$$$$
