ligand
  PyMOL2.2          3D                             0

 11 12  0  0  0  0  0  0  0  0999 V2000
   12.0800   11.5010    9.1010 N   0  0  0  0  0  0  0  0  0  0  0  0
   11.5650   12.7210    9.3230 C   0  0  0  0  0  0  0  0  0  0  0  0
   11.5620   13.2270   10.6120 N   0  0  0  0  0  0  0  0  0  0  0  0
   11.0540   13.4590    8.3240 N   0  0  0  0  0  0  0  0  0  0  0  0
   11.0420   12.9940    7.0530 C   0  0  0  0  0  0  0  0  0  0  0  0
   11.5760   11.7110    6.7720 C   0  0  0  0  0  0  0  0  0  0  0  0
   12.1070   10.9620    7.8640 C   0  0  0  0  0  0  0  0  0  0  0  0
   12.6440    9.7040    7.6670 N   0  0  0  0  0  0  0  0  0  0  0  0
   11.4340   11.5010    5.4400 N   0  0  0  0  0  0  0  0  0  0  0  0
   10.8650   12.5400    4.8970 C   0  0  0  0  0  0  0  0  0  0  0  0
   10.6050   13.4860    5.8500 N   0  0  0  0  0  0  0  0  0  0  0  0
  1  7  4  0  0  0  0
  1  2  4  0  0  0  0
  2  3  1  0  0  0  0
  2  4  4  0  0  0  0
  4  5  4  0  0  0  0
  5  6  4  0  0  0  0
  6  7  4  0  0  0  0
  7  8  1  0  0  0  0
  6  9  4  0  0  0  0
  9 10  4  0  0  0  0
  5 11  4  0  0  0  0
 10 11  4  0  0  0  0
M  END
$$$$
