lig.pdb
 OpenBabel03051820513D

 46 49  0  0  1  0  0  0  0  0999 V2000
   11.4040  -10.9340    5.5510 C   0  0  1  0  0  0  0  0  0  0  0  0
   13.8600  -11.3290    6.0200 C   0  0  1  0  0  0  0  0  0  0  0  0
   13.8640  -12.5330    7.0100 C   0  0  1  0  0  0  0  0  0  0  0  0
   15.2040  -12.4660    7.9060 C   0  0  2  0  0  0  0  0  0  0  0  0
   11.9450  -13.3410    8.4600 C   0  0  2  0  0  0  0  0  0  0  0  0
   11.2210  -12.8400    9.7420 C   0  0  1  0  0  0  0  0  0  0  0  0
   10.1140  -13.8660    9.7700 C   0  0  1  0  0  0  0  0  0  0  0  0
    9.5930  -13.9280    8.2990 C   0  0  1  0  0  0  0  0  0  0  0  0
    8.5680  -12.8230    7.8630 C   0  0  0  0  0  0  0  0  0  0  0  0
    9.7950  -16.1060   10.7520 C   0  0  1  0  0  0  0  0  0  0  0  0
   10.4400  -17.2090   11.5370 C   0  0  1  0  0  0  0  0  0  0  0  0
   10.3250  -11.5950    4.6610 C   0  0  1  0  0  0  0  0  0  0  0  0
    9.3180  -18.1870   12.0360 C   0  0  0  0  0  0  0  0  0  0  0  0
    8.5520  -18.8050   10.9920 C   0  0  0  0  0  0  0  0  0  0  0  0
    7.8840  -17.7700   10.2320 C   0  0  2  0  0  0  0  0  0  0  0  0
    7.0290  -18.3910    9.0580 C   0  0  0  0  0  0  0  0  0  0  0  0
   20.3670  -14.2360    8.6170 C   0  0  2  0  0  0  0  0  0  0  0  0
   18.9040  -13.1550    7.1190 C   0  0  0  0  0  0  0  0  0  0  0  0
   21.5610  -14.2310    9.3130 C   0  0  0  0  0  0  0  0  0  0  0  0
   20.1340  -12.9880    8.1400 C   0  0  1  0  0  0  0  0  0  0  0  0
   10.4460  -11.0980    3.1490 C   0  0  0  0  0  0  0  0  0  0  0  0
   10.2990   -9.5010    3.1330 C   0  0  0  0  0  0  0  0  0  0  0  0
   11.4610   -8.8910    4.0460 C   0  0  1  0  0  0  0  0  0  0  0  0
   11.3980   -7.3600    4.1050 C   0  0  0  0  0  0  0  0  0  0  0  0
   16.4550  -12.6110    6.9340 C   0  0  1  0  0  0  0  0  0  0  0  0
   16.4110  -11.3250    5.9490 C   0  0  0  0  0  0  0  0  0  0  0  0
   15.0930  -11.3550    5.0830 C   0  0  2  0  0  0  0  0  0  0  0  0
   19.3100  -14.7220    9.4750 F   0  0  0  0  0  0  0  0  0  0  0  0
    6.2370  -17.3240    8.2490 N   0  0  0  0  0  0  0  0  0  0  0  0
   10.4690  -13.0930    4.7820 N   0  0  0  0  0  0  0  0  0  0  0  0
   11.3190  -18.0020   10.7940 N   0  0  0  0  0  0  0  0  0  0  0  0
   22.4010  -15.2870    9.7380 N   0  0  0  0  0  0  0  0  0  0  0  0
   12.4360   -6.8400    4.9070 N   0  0  0  0  0  0  0  0  0  0  0  0
   17.7030  -12.5680    7.7170 N   0  0  0  0  0  0  0  0  0  0  0  0
   15.0330  -10.1790    4.1870 N   0  0  0  0  0  0  0  0  0  0  0  0
   12.7110  -11.3770    5.1840 O   0  0  0  0  0  0  0  0  0  0  0  0
   12.6320  -12.4000    7.8570 O   0  0  0  0  0  0  0  0  0  0  0  0
   15.1840  -13.5380    8.7700 O   0  0  0  0  0  0  0  0  0  0  0  0
   12.1120  -12.9320   10.8120 O   0  0  0  0  0  0  0  0  0  0  0  0
   10.8790  -13.9620    7.6580 O   0  0  0  0  0  0  0  0  0  0  0  0
    7.8280  -13.3420    6.7400 O   0  0  0  0  0  0  0  0  0  0  0  0
   10.6840  -15.2010   10.2140 O   0  0  0  0  0  0  0  0  0  0  0  0
   19.7820  -12.0440    9.1750 O   0  0  0  0  0  0  0  0  0  0  0  0
   18.9830  -13.6860    5.9990 O   0  0  0  0  0  0  0  0  0  0  0  0
    8.8910  -16.7820    9.6920 O   0  0  0  0  0  0  0  0  0  0  0  0
   11.3440   -9.4360    5.4600 O   0  0  0  0  0  0  0  0  0  0  0  0
  1 36  1  6  0  0  0
  2 36  1  6  0  0  0
  2  3  1  0  0  0  0
  3 37  1  1  0  0  0
  3  4  1  0  0  0  0
  4 38  1  1  0  0  0
  5 37  1  6  0  0  0
  5  6  1  0  0  0  0
  6  7  1  0  0  0  0
  6 39  1  1  0  0  0
  7 42  1  6  0  0  0
  8  9  1  6  0  0  0
  8  7  1  0  0  0  0
 10 42  1  6  0  0  0
 10 11  1  0  0  0  0
 11 31  1  6  0  0  0
 11 13  1  0  0  0  0
 12 30  1  6  0  0  0
 12  1  1  0  0  0  0
 14 13  1  0  0  0  0
 15 16  1  6  0  0  0
 15 14  1  0  0  0  0
 17 19  1  1  0  0  0
 17 28  1  0  0  0  0
 18 34  1  0  0  0  0
 19 32  1  0  0  0  0
 20 18  1  6  0  0  0
 20 17  1  0  0  0  0
 20 43  1  0  0  0  0
 21 12  1  0  0  0  0
 22 21  1  0  0  0  0
 22 23  1  0  0  0  0
 23 24  1  1  0  0  0
 23 46  1  0  0  0  0
 24 33  1  0  0  0  0
 25 34  1  1  0  0  0
 25  4  1  0  0  0  0
 26 25  1  0  0  0  0
 27 35  1  6  0  0  0
 27 26  1  0  0  0  0
 27  2  1  0  0  0  0
 29 16  1  0  0  0  0
 40  8  1  0  0  0  0
 40  5  1  0  0  0  0
 41  9  1  0  0  0  0
 44 18  2  0  0  0  0
 45 15  1  0  0  0  0
 45 10  1  0  0  0  0
 46  1  1  0  0  0  0
M  END
$$$$
