ligand
  PyMOL2.2          3D                             0

 22 23  0  0  0  0  0  0  0  0999 V2000
   34.3450   29.4260  108.1310 N   0  0  0  0  0  0  0  0  0  0  0  0
   34.1940   30.7240  108.6710 C   0  0  0  0  0  0  0  0  0  0  0  0
   35.3670   31.4860  109.0170 N   0  0  0  0  0  0  0  0  0  0  0  0
   32.9550   31.2750  108.8750 N   0  0  0  0  0  0  0  0  0  0  0  0
   31.7830   30.5770  108.5560 C   0  0  0  0  0  0  0  0  0  0  0  0
   31.8910   29.2520  108.0040 C   0  0  0  0  0  0  0  0  0  0  0  0
   33.2240   28.6850  107.7960 C   0  0  0  0  0  0  0  0  0  0  0  0
   33.3670   27.4220  107.2710 O   0  0  0  0  0  0  0  0  0  0  0  0
   30.5310   28.7920  107.7840 C   0  0  0  0  0  0  0  0  0  0  0  0
   29.6870   29.8260  108.1910 C   0  0  0  0  0  0  0  0  0  0  0  0
   30.4380   30.8840  108.6520 N   0  0  0  0  0  0  0  0  0  0  0  0
   30.1190   27.4670  107.2160 C   0  0  0  0  0  0  0  0  0  0  0  0
   30.8060   27.2510  105.9560 N   0  0  0  0  0  0  0  0  0  0  0  0
   35.2810   32.3330  109.3380 H   0  0  0  0  0  0  0  0  0  0  0  0
   36.2000   31.1180  108.9130 H   0  0  0  0  0  0  0  0  0  0  0  0
   30.1010   31.6640  108.9720 H   0  0  0  0  0  0  0  0  0  0  0  0
   28.7160   29.8010  108.1610 H   0  0  0  0  0  0  0  0  0  0  0  0
   35.1760   29.0790  108.0050 H   0  0  0  0  0  0  0  0  0  0  0  0
   29.1580   27.4540  107.0770 H   0  0  0  0  0  0  0  0  0  0  0  0
   30.3680   26.7620  107.8350 H   0  0  0  0  0  0  0  0  0  0  0  0
   30.1940   27.1700  105.2870 H   0  0  0  0  0  0  0  0  0  0  0  0
   31.3030   26.4850  106.0070 H   0  0  0  0  0  0  0  0  0  0  0  0
  1  2  4  0  0  0  0
  1  7  4  0  0  0  0
  1 18  1  0  0  0  0
  2  3  1  0  0  0  0
  2  4  4  0  0  0  0
  3 14  1  0  0  0  0
  3 15  1  0  0  0  0
  4  5  4  0  0  0  0
  5  6  4  0  0  0  0
  5 11  4  0  0  0  0
  6  7  4  0  0  0  0
  6  9  4  0  0  0  0
  7  8  2  0  0  0  0
  9 10  4  0  0  0  0
  9 12  1  0  0  0  0
 10 11  4  0  0  0  0
 10 17  1  0  0  0  0
 11 16  1  0  0  0  0
 12 13  1  0  0  0  0
 12 19  1  0  0  0  0
 12 20  1  0  0  0  0
 13 21  1  0  0  0  0
 13 22  1  0  0  0  0
M  END
$$$$
