lig.pdb
 OpenBabel03051820513D

 27 30  0  0  1  0  0  0  0  0999 V2000
   27.6590   35.6030   19.7220 N   0  0  0  0  0  0  0  0  0  0  0  0
   27.9090   36.8300   20.1050 C   0  0  0  0  0  0  0  0  0  0  0  0
   27.6700   37.3180   21.3530 N   0  0  0  0  0  0  0  0  0  0  0  0
   27.1960   36.4660   22.3100 C   0  0  0  0  0  0  0  0  0  0  0  0
   26.9440   35.1580   22.0120 C   0  0  0  0  0  0  0  0  0  0  0  0
   27.1560   34.6960   20.6540 C   0  0  0  0  0  0  0  0  0  0  0  0
   26.9060   33.5380   20.2980 O   0  0  0  0  0  0  0  0  0  0  0  0
   28.3580   37.8780   19.0990 C   0  0  2  0  0  0  0  0  0  0  0  0
   27.7880   39.1890   19.6640 C   0  0  0  0  0  0  0  0  0  0  0  0
   28.0010   40.2960   18.7360 N   0  0  0  0  0  0  0  0  0  0  0  0
   27.2790   40.0270   17.4720 C   0  0  0  0  0  0  0  0  0  0  0  0
   27.8050   38.7600   16.8060 C   0  0  0  0  0  0  0  0  0  0  0  0
   27.7030   37.5700   17.7480 C   0  0  0  0  0  0  0  0  0  0  0  0
   27.0210   37.1450   23.5880 C   0  0  0  0  0  0  0  0  0  0  0  0
   27.4330   38.8040   23.8140 S   0  0  0  0  0  0  0  0  0  0  0  0
   26.9540   38.7780   25.4230 C   0  0  0  0  0  0  0  0  0  0  0  0
   26.4720   37.5790   25.7620 C   0  0  0  0  0  0  0  0  0  0  0  0
   26.5060   36.6370   24.7150 C   0  0  0  0  0  0  0  0  0  0  0  0
   27.6230   41.6020   19.3080 C   0  0  0  0  0  0  0  0  0  0  0  0
   27.8680   41.8150   20.7890 C   0  0  0  0  0  0  0  0  0  0  0  0
   26.8280   41.9680   21.6920 C   0  0  0  0  0  0  0  0  0  0  0  0
   26.9920   42.2680   22.9910 N   0  0  0  0  0  0  0  0  0  0  0  0
   28.2620   42.4570   23.3810 C   0  0  0  0  0  0  0  0  0  0  0  0
   29.3530   42.3970   22.5950 N   0  0  0  0  0  0  0  0  0  0  0  0
   29.1210   42.1040   21.3050 C   0  0  0  0  0  0  0  0  0  0  0  0
   28.4470   42.7880   24.6670 N   0  0  0  0  0  0  0  0  0  0  0  0
   29.7310   43.0480   25.2860 C   0  0  0  0  0  0  0  0  0  0  0  0
  1  2  2  0  0  0  0
  1  6  1  0  0  0  0
  2  3  1  0  0  0  0
  3  4  2  0  0  0  0
  4 14  1  0  0  0  0
  5  4  1  0  0  0  0
  6  5  1  0  0  0  0
  7  6  2  0  0  0  0
  8  9  1  0  0  0  0
  8  2  1  1  0  0  0
 10 19  1  0  0  0  0
 10  9  1  0  0  0  0
 11 10  1  0  0  0  0
 12 11  1  0  0  0  0
 12 13  1  0  0  0  0
 13  8  1  0  0  0  0
 14 15  1  0  0  0  0
 14 18  2  0  0  0  0
 15 16  1  0  0  0  0
 16 17  2  0  0  0  0
 18 17  1  0  0  0  0
 19 20  1  0  0  0  0
 20 25  2  0  0  0  0
 20 21  1  0  0  0  0
 21 22  2  0  0  0  0
 22 23  1  0  0  0  0
 23 26  1  0  0  0  0
 24 23  2  0  0  0  0
 25 24  1  0  0  0  0
 26 27  1  0  0  0  0
M  END
$$$$
