lig.pdb
 OpenBabel03051820513D

 22 23  0  0  0  0  0  0  0  0999 V2000
  -11.1480    3.9530   -6.6110 N   0  0  0  0  0  0  0  0  0  0  0  0
  -11.3310    3.5120   -7.8910 C   0  0  0  0  0  0  0  0  0  0  0  0
  -10.2990    3.3870   -8.7060 N   0  0  0  0  0  0  0  0  0  0  0  0
   -9.0230    3.6890   -8.3160 C   0  0  0  0  0  0  0  0  0  0  0  0
   -8.7770    4.1560   -7.0020 C   0  0  0  0  0  0  0  0  0  0  0  0
   -9.8980    4.2870   -6.1280 C   0  0  0  0  0  0  0  0  0  0  0  0
   -9.7560    4.6850   -4.9850 O   0  0  0  0  0  0  0  0  0  0  0  0
   -7.3320    4.3950   -6.9080 C   0  0  0  0  0  0  0  0  0  0  0  0
   -6.5610    4.9160   -5.7240 C   0  0  0  0  0  0  0  0  0  0  0  0
   -7.2820    6.0480   -5.1270 N   0  0  0  0  0  0  0  0  0  0  0  0
   -6.8230    4.0600   -8.1000 C   0  0  0  0  0  0  0  0  0  0  0  0
   -7.8180    3.6460   -8.9450 N   0  0  0  0  0  0  0  0  0  0  0  0
  -12.5920    3.1990   -8.3290 N   0  0  0  0  0  0  0  0  0  0  0  0
  -11.9330    4.0400   -5.9910 H   0  0  0  0  0  0  0  0  0  0  0  0
   -5.5710    5.2470   -6.0560 H   0  0  0  0  0  0  0  0  0  0  0  0
   -6.4510    4.1230   -4.9840 H   0  0  0  0  0  0  0  0  0  0  0  0
   -8.0520    5.8800   -4.4960 H   0  0  0  0  0  0  0  0  0  0  0  0
   -7.0170    6.9950   -5.3590 H   0  0  0  0  0  0  0  0  0  0  0  0
   -5.7840    4.0910   -8.4100 H   0  0  0  0  0  0  0  0  0  0  0  0
   -7.6250    3.3600   -9.8940 H   0  0  0  0  0  0  0  0  0  0  0  0
  -13.3810    3.3000   -7.7060 H   0  0  0  0  0  0  0  0  0  0  0  0
  -12.7300    2.8670   -9.2740 H   0  0  0  0  0  0  0  0  0  0  0  0
  1  6  1  0  0  0  0
  1 14  1  0  0  0  0
  2  1  1  0  0  0  0
  3  4  1  0  0  0  0
  3  2  2  0  0  0  0
  4  5  2  0  0  0  0
  5  8  1  0  0  0  0
  5  6  1  0  0  0  0
  6  7  2  0  0  0  0
  8  9  1  0  0  0  0
  9 10  1  0  0  0  0
  9 16  1  0  0  0  0
 10 17  1  0  0  0  0
 11  8  2  0  0  0  0
 12  4  1  0  0  0  0
 12 11  1  0  0  0  0
 13  2  1  0  0  0  0
 13 21  1  0  0  0  0
 15  9  1  0  0  0  0
 18 10  1  0  0  0  0
 19 11  1  0  0  0  0
 20 12  1  0  0  0  0
 22 13  1  0  0  0  0
M  END
$$$$
