ligand
  PyMOL2.3          3D                             0

 13 14  0  0  0  0  0  0  0  0999 V2000
   -3.6320   31.5300   54.8980 N   0  0  0  0  0  0  0  0  0  0  0  0
   -2.6420   30.5340   54.9070 C   0  0  0  0  0  0  0  0  0  0  0  0
   -1.3480   30.8230   55.4810 N   0  0  0  0  0  0  0  0  0  0  0  0
   -2.9060   29.2890   54.3830 N   0  0  0  0  0  0  0  0  0  0  0  0
   -4.1650   28.9700   53.8120 C   0  0  0  0  0  0  0  0  0  0  0  0
   -5.1930   29.9740   53.7670 C   0  0  0  0  0  0  0  0  0  0  0  0
   -4.8790   31.2720   54.3190 C   0  0  0  0  0  0  0  0  0  0  0  0
   -5.8670   32.2160   54.2800 O   0  0  0  0  0  0  0  0  0  0  0  0
   -6.3650   29.4000   53.1470 C   0  0  0  0  0  0  0  0  0  0  0  0
   -5.9940   28.0930   52.8270 C   0  0  0  0  0  0  0  0  0  0  0  0
   -4.6950   27.8450   53.2320 N   0  0  0  0  0  0  0  0  0  0  0  0
   -7.6870   30.0850   52.8610 C   0  0  0  0  0  0  0  0  0  0  0  0
   -8.5140   30.2660   54.0520 N   0  0  0  0  0  0  0  0  0  0  0  0
  1  2  4  0  0  0  0
  1  7  4  0  0  0  0
  2  3  1  0  0  0  0
  2  4  4  0  0  0  0
  4  5  4  0  0  0  0
  5  6  4  0  0  0  0
  5 11  4  0  0  0  0
  6  7  4  0  0  0  0
  6  9  4  0  0  0  0
  7  8  2  0  0  0  0
  9 10  4  0  0  0  0
  9 12  1  0  0  0  0
 10 11  4  0  0  0  0
 12 13  1  0  0  0  0
M  END
$$$$
