1nyi_lig
 OpenBabel02221317003D

 20 22  0  0  1  0  0  0  0  0999 V2000
   26.1710   -0.1780   44.0400 C   0  0  0  0  0  0  0  0  0  0  0  0
   25.3520   -0.4860   42.9120 O   0  0  0  0  0  0  0  0  0  0  0  0
   27.2430   -1.2280   44.2310 C   0  0  1  0  0  0  0  0  0  0  0  0
   26.7190   -2.2880   45.0760 O   0  0  0  0  0  0  0  0  0  0  0  0
   27.6440   -1.8990   42.9220 C   0  0  1  0  0  0  0  0  0  0  0  0
   28.7300   -1.2160   42.2940 O   0  0  0  0  0  0  0  0  0  0  0  0
   27.9940   -3.3140   43.3780 C   0  0  1  0  0  0  0  0  0  0  0  0
   29.2850   -3.4090   43.9610 O   0  0  0  0  0  0  0  0  0  0  0  0
   26.9200   -3.5440   44.4390 C   0  0  2  0  0  0  0  0  0  0  0  0
   24.3540   -7.8750   43.3680 N   0  0  0  0  0  0  0  0  0  0  0  0
   25.6640   -7.7070   43.7460 C   0  0  1  0  0  0  0  0  0  0  0  0
   26.3790   -8.8280   43.8520 N   0  0  0  0  0  0  0  0  0  0  0  0
   26.2300   -6.5300   43.9970 N   0  0  0  0  0  0  0  0  0  0  0  0
   25.3610   -5.4910   43.8280 C   0  0  1  0  0  0  0  0  0  0  0  0
   24.0310   -5.5580   43.4520 C   0  0  1  0  0  0  0  0  0  0  0  0
   23.4460   -6.8300   43.1990 C   0  0  0  0  0  0  0  0  0  0  0  0
   22.2850   -7.0910   42.8590 O   0  0  0  0  0  0  0  0  0  0  0  0
   23.4730   -4.2870   43.4040 N   0  0  0  0  0  0  0  0  0  0  0  0
   24.4510   -3.4900   43.7360 C   0  0  0  0  0  0  0  0  0  0  0  0
   25.6360   -4.1400   44.0030 N   0  0  1  0  0  0  0  0  0  0  0  0
  2  1  1  0  0  0  0
  3  1  1  6  0  0  0
  3  4  1  0  0  0  0
  3  5  1  0  0  0  0
  5  6  1  1  0  0  0
  5  7  1  0  0  0  0
  7  8  1  1  0  0  0
  7  9  1  0  0  0  0
  9  4  1  6  0  0  0
  9 20  1  0  0  0  0
 10 11  1  0  0  0  0
 11 12  1  6  0  0  0
 11 13  1  0  0  0  0
 14 13  1  1  0  0  0
 15 14  1  0  0  0  0
 15 16  1  1  0  0  0
 16 10  1  0  0  0  0
 16 17  2  0  0  0  0
 18 15  1  0  0  0  0
 19 18  1  0  0  0  0
 20 14  1  0  0  0  0
 20 19  1  1  0  0  0
M  END
$$$$
