ligand
  PyMOL2.2          3D                             0

 10  9  0  0  0  0  0  0  0  0999 V2000
   23.6410   42.2320   23.3330 N   0  0  0  0  0  0  0  0  0  0  0  0
   23.6400   40.9880   22.5730 C   0  0  0  0  0  0  0  0  0  0  0  0
   23.8090   39.7840   23.4980 C   0  0  0  0  0  0  0  0  0  0  0  0
   23.9410   39.9580   24.7130 O   0  0  0  0  0  0  0  0  0  0  0  0
   24.7300   41.0080   21.4970 C   0  0  0  0  0  0  0  0  0  0  0  0
   24.4440   41.9780   20.3570 C   0  0  0  0  0  0  0  0  0  0  0  0
   25.5580   41.9880   19.3140 C   0  0  0  0  0  0  0  0  0  0  0  0
   25.1700   42.7950   18.0650 C   0  0  0  0  0  0  0  0  0  0  0  0
   24.9040   44.2460   18.3210 N   0  0  0  0  0  0  0  0  0  0  0  0
   23.8020   38.6260   23.0600 O   0  0  0  0  0  0  0  0  0  0  0  0
  1  2  1  0  0  0  0
  2  3  1  0  0  0  0
  2  5  1  0  0  0  0
  3  4  4  0  0  0  0
  3 10  4  0  0  0  0
  5  6  1  0  0  0  0
  6  7  1  0  0  0  0
  7  8  1  0  0  0  0
  8  9  1  0  0  0  0
M  END
$$$$
