ligand
  PyMOL2.3          3D                             0

 46 52  0  0  0  0  0  0  0  0999 V2000
  160.0510   46.2150  143.6740 P   0  0  0  0  0  0  0  0  0  0  0  0
  158.4600   42.1310  147.3100 P   0  0  0  0  0  0  0  0  0  0  0  0
  159.5070   46.0810  142.2750 O   0  5  0  0  0  0  0  0  0  0  0  0
  160.7720   47.5040  144.0030 O   0  0  0  0  0  0  0  0  0  0  0  0
  158.6910   46.7130  145.8880 C   0  0  0  0  0  0  0  0  0  0  0  0
  158.8540   45.9340  144.7100 O   0  0  0  0  0  0  0  0  0  0  0  0
  157.7590   46.0030  146.8560 C   0  0  0  0  0  0  0  0  0  0  0  0
  156.4900   46.6380  146.7900 O   0  0  0  0  0  0  0  0  0  0  0  0
  157.5120   44.5270  146.5710 C   0  0  0  0  0  0  0  0  0  0  0  0
  158.2590   43.7330  147.4810 O   0  0  0  0  0  0  0  0  0  0  0  0
  156.0440   44.3480  146.8870 C   0  0  0  0  0  0  0  0  0  0  0  0
  155.8890   43.9950  148.2630 O   0  0  0  0  0  0  0  0  0  0  0  0
  155.4240   45.7040  146.7130 C   0  0  0  0  0  0  0  0  0  0  0  0
  160.8150   41.6360  142.4520 C   0  0  0  0  0  0  0  0  0  0  0  0
  151.4090   44.2980  143.6390 N   0  0  0  0  0  0  0  0  0  0  0  0
  151.6650   43.9920  144.9250 C   0  0  0  0  0  0  0  0  0  0  0  0
  160.6550   43.1380  142.3430 C   0  0  0  0  0  0  0  0  0  0  0  0
  150.7970   43.2040  145.5980 N   0  0  0  0  0  0  0  0  0  0  0  0
  161.8540   43.6560  141.7600 O   0  0  0  0  0  0  0  0  0  0  0  0
  160.4920   43.6300  143.7690 C   0  0  0  0  0  0  0  0  0  0  0  0
  152.7560   44.4290  145.5940 N   0  0  0  0  0  0  0  0  0  0  0  0
  161.0140   44.9480  143.9320 O   0  0  0  0  0  0  0  0  0  0  0  0
  153.6710   45.2170  144.9900 C   0  0  0  0  0  0  0  0  0  0  0  0
  161.2820   42.5920  144.5630 C   0  0  0  0  0  0  0  0  0  0  0  0
  161.3130   41.4020  143.7720 O   0  0  0  0  0  0  0  0  0  0  0  0
  153.4570   45.5890  143.5880 C   0  0  0  0  0  0  0  0  0  0  0  0
  160.7150   42.2650  145.9480 C   0  0  0  0  0  0  0  0  0  0  0  0
  159.3070   42.0330  145.9380 O   0  0  0  0  0  0  0  0  0  0  0  0
  152.2390   45.0730  142.9200 C   0  0  0  0  0  0  0  0  0  0  0  0
  152.0040   45.3620  141.7220 O   0  0  0  0  0  0  0  0  0  0  0  0
  154.5040   46.3590  143.2420 N   0  0  0  0  0  0  0  0  0  0  0  0
  155.3150   46.4740  144.3210 C   0  0  0  0  0  0  0  0  0  0  0  0
  154.8140   45.7910  145.3650 N   0  0  0  0  0  0  0  0  0  0  0  0
  156.4240   41.1180  139.6080 N   0  0  0  0  0  0  0  0  0  0  0  0
  159.3320   41.6910  148.4710 O   0  5  0  0  0  0  0  0  0  0  0  0
  157.5160   41.8630  139.3770 C   0  0  0  0  0  0  0  0  0  0  0  0
  157.5330   42.6040  138.2590 N   0  0  0  0  0  0  0  0  0  0  0  0
  157.1180   41.4870  147.0600 O   0  0  0  0  0  0  0  0  0  0  0  0
  158.5870   41.8990  140.2040 N   0  0  0  0  0  0  0  0  0  0  0  0
  158.6080   41.1630  141.3350 C   0  0  0  0  0  0  0  0  0  0  0  0
  157.4350   40.3220  141.6470 C   0  0  0  0  0  0  0  0  0  0  0  0
  156.3070   40.3340  140.6810 C   0  0  0  0  0  0  0  0  0  0  0  0
  155.2680   39.6620  140.8570 O   0  0  0  0  0  0  0  0  0  0  0  0
  157.7120   39.7000  142.8040 N   0  0  0  0  0  0  0  0  0  0  0  0
  158.9490   40.1140  143.1960 C   0  0  0  0  0  0  0  0  0  0  0  0
  159.4880   40.9850  142.3200 N   0  0  0  0  0  0  0  0  0  0  0  0
  1  3  1  0  0  0  0
  1  4  2  0  0  0  0
  1  6  1  0  0  0  0
  1 22  1  0  0  0  0
  2 28  1  0  0  0  0
  2 35  1  0  0  0  0
  2 38  2  0  0  0  0
  5  7  1  0  0  0  0
  5  6  1  0  0  0  0
  7  8  1  0  0  0  0
  7  9  1  0  0  0  0
  8 13  1  0  0  0  0
  9 10  1  0  0  0  0
  9 11  1  0  0  0  0
  2 10  1  0  0  0  0
 11 12  1  0  0  0  0
 11 13  1  0  0  0  0
 13 33  1  0  0  0  0
 14 46  1  0  0  0  0
 15 16  4  0  0  0  0
 16 18  1  0  0  0  0
 16 21  4  0  0  0  0
 14 17  1  0  0  0  0
 17 19  1  0  0  0  0
 17 20  1  0  0  0  0
 20 22  1  0  0  0  0
 21 23  4  0  0  0  0
 20 24  1  0  0  0  0
 24 25  1  0  0  0  0
 14 25  1  0  0  0  0
 23 26  4  0  0  0  0
 26 29  4  0  0  0  0
 24 27  1  0  0  0  0
 27 28  1  0  0  0  0
 15 29  4  0  0  0  0
 29 30  2  0  0  0  0
 26 31  4  0  0  0  0
 31 32  4  0  0  0  0
 23 33  4  0  0  0  0
 32 33  4  0  0  0  0
 34 36  4  0  0  0  0
 36 37  1  0  0  0  0
 36 39  4  0  0  0  0
 39 40  4  0  0  0  0
 40 41  4  0  0  0  0
 41 42  4  0  0  0  0
 34 42  4  0  0  0  0
 42 43  2  0  0  0  0
 41 44  4  0  0  0  0
 44 45  4  0  0  0  0
 40 46  4  0  0  0  0
 45 46  4  0  0  0  0
M  END
$$$$
