ligand
  PyMOL2.2          3D                             0

 45 51  0  0  0  0  0  0  0  0999 V2000
   97.5080   16.8810   97.1320 C   0  0  0  0  0  0  0  0  0  0  0  0
   95.4020   14.5800   94.3300 C   0  0  0  0  0  0  0  0  0  0  0  0
  102.6540   14.8610   98.4890 N   0  0  0  0  0  0  0  0  0  0  0  0
   97.7070   16.9550   98.4080 N   0  0  0  0  0  0  0  0  0  0  0  0
  100.6900   15.5350   97.4190 N   0  0  0  0  0  0  0  0  0  0  0  0
  100.8830   15.7520   99.7280 N   0  0  0  0  0  0  0  0  0  0  0  0
   99.1080   16.7210  101.0260 O   0  0  0  0  0  0  0  0  0  0  0  0
   92.6080   15.1140   95.5490 O   0  5  0  0  0  0  0  0  0  0  0  0
   98.4320   10.6960   93.3910 O   0  5  0  0  0  0  0  0  0  0  0  0
   99.7930   14.6410   93.8650 O   0  0  0  0  0  0  0  0  0  0  0  0
   93.5390   14.6310   97.5120 O   0  5  0  0  0  0  0  0  0  0  0  0
   99.4620   11.6930   95.1060 O   0  5  0  0  0  0  0  0  0  0  0  0
   94.9610   15.1240   95.5090 O   0  0  0  0  0  0  0  0  0  0  0  0
   97.2590   16.3150   94.5090 O   0  0  0  0  0  0  0  0  0  0  0  0
   97.7840   12.9630   93.6670 O   0  0  0  0  0  0  0  0  0  0  0  0
  101.3340   15.4020   98.5490 C   0  0  0  0  0  0  0  0  0  0  0  0
   99.6780   16.2970   99.8270 C   0  0  0  0  0  0  0  0  0  0  0  0
   98.9120   16.4550   98.6500 C   0  0  0  0  0  0  0  0  0  0  0  0
   99.4490   16.0740   97.4450 C   0  0  0  0  0  0  0  0  0  0  0  0
   98.9160   14.8580   94.9060 C   0  0  0  0  0  0  0  0  0  0  0  0
   96.8110   14.9170   94.0490 C   0  0  0  0  0  0  0  0  0  0  0  0
   97.5590   14.0540   94.5520 C   0  0  0  0  0  0  0  0  0  0  0  0
   98.6020   16.1160   95.1540 C   0  0  0  0  0  0  0  0  0  0  0  0
   98.5130   16.3530   96.5370 N   0  0  0  0  0  0  0  0  0  0  0  0
   93.7000   14.4340   96.1140 P   0  0  0  0  0  0  0  0  0  0  0  0
   98.2170   11.6650   94.3780 P   0  0  0  0  0  0  0  0  0  0  0  0
   95.6860   11.1020   94.6930 C   0  0  0  0  0  0  0  0  0  0  0  0
   97.0190   11.1300   95.2280 O   0  0  0  0  0  0  0  0  0  0  0  0
   94.6190   10.9610   95.6950 C   0  0  0  0  0  0  0  0  0  0  0  0
   95.0820    9.8500   96.7600 O   0  0  0  0  0  0  0  0  0  0  0  0
   94.4990   12.0270   96.3500 C   0  0  0  0  0  0  0  0  0  0  0  0
   93.5840   12.9550   95.7230 O   0  0  0  0  0  0  0  0  0  0  0  0
   94.0710   11.5630   97.7340 C   0  0  0  0  0  0  0  0  0  0  0  0
   92.8220   11.3880   97.7680 O   0  0  0  0  0  0  0  0  0  0  0  0
   94.7620   10.2110   97.9120 C   0  0  0  0  0  0  0  0  0  0  0  0
   95.8740   10.8870  102.8860 N   0  0  0  0  0  0  0  0  0  0  0  0
   94.6950   11.1560  102.2660 C   0  0  0  0  0  0  0  0  0  0  0  0
   94.6150   10.8990  100.9660 N   0  0  0  0  0  0  0  0  0  0  0  0
   95.6430   10.4510  100.2140 C   0  0  0  0  0  0  0  0  0  0  0  0
   96.8830   10.1600  100.8220 C   0  0  0  0  0  0  0  0  0  0  0  0
   96.9520   10.4200  102.2280 C   0  0  0  0  0  0  0  0  0  0  0  0
   98.1740   10.1770  102.9220 N   0  0  0  0  0  0  0  0  0  0  0  0
   97.6530    9.7150   99.8920 N   0  0  0  0  0  0  0  0  0  0  0  0
   96.9780    9.6860   98.7560 C   0  0  0  0  0  0  0  0  0  0  0  0
   95.7860   10.1380   98.9180 N   0  0  0  0  0  0  0  0  0  0  0  0
  1 24  4  0  0  0  0
  2 13  1  0  0  0  0
  1  4  4  0  0  0  0
  5 19  4  0  0  0  0
  6 16  4  0  0  0  0
  7 17  1  0  0  0  0
 13 25  1  0  0  0  0
 14 21  1  0  0  0  0
 15 26  1  0  0  0  0
  3 16  1  0  0  0  0
  5 16  4  0  0  0  0
  6 17  4  0  0  0  0
 17 18  4  0  0  0  0
  4 18  4  0  0  0  0
 18 19  4  0  0  0  0
 19 24  4  0  0  0  0
 10 20  1  0  0  0  0
 20 22  1  0  0  0  0
  2 21  1  0  0  0  0
 21 22  1  0  0  0  0
 15 22  1  0  0  0  0
 14 23  1  0  0  0  0
 20 23  1  0  0  0  0
 23 24  1  0  0  0  0
  8 25  1  0  0  0  0
 11 25  2  0  0  0  0
 25 32  1  0  0  0  0
  9 26  1  0  0  0  0
 12 26  2  0  0  0  0
 26 28  1  0  0  0  0
 27 29  1  0  0  0  0
 27 28  1  0  0  0  0
 29 30  1  0  0  0  0
 29 31  1  0  0  0  0
 30 35  1  0  0  0  0
 31 33  1  0  0  0  0
 31 32  1  0  0  0  0
 33 34  1  0  0  0  0
 33 35  1  0  0  0  0
 35 45  1  0  0  0  0
 36 41  4  0  0  0  0
 36 37  4  0  0  0  0
 37 38  4  0  0  0  0
 38 39  4  0  0  0  0
 39 40  4  0  0  0  0
 40 41  4  0  0  0  0
 41 42  1  0  0  0  0
 40 43  4  0  0  0  0
 43 44  4  0  0  0  0
 39 45  4  0  0  0  0
 44 45  4  0  0  0  0
M  END
$$$$
