1fyp_lig
 OpenBabel02221317003D

 87 90  0  0  1  0  0  0  0  0999 V2000
    6.7630    5.9630   27.0520 C   0  0  2  0  0  0  0  0  0  0  0  0
    5.9560    7.0090   26.4380 O   0  0  0  0  0  0  0  0  0  0  0  0
    3.5350    7.8640   23.0250 C   0  0  2  0  0  0  0  0  0  0  0  0
    2.9490    7.9930   21.6780 N   0  0  0  0  0  0  0  0  0  0  0  0
    3.1440    4.1220   25.7990 C   0  0  1  0  0  0  0  0  0  0  0  0
    0.3490    0.7590   26.3530 C   0  0  1  0  0  0  0  0  0  0  0  0
    6.5030    5.8680   28.5900 C   0  0  2  0  0  0  0  0  0  0  0  0
    5.0570    5.7800   28.8850 N   0  0  0  0  0  0  0  0  0  0  0  0
    4.9790    8.4040   23.0100 C   0  0  0  0  0  0  0  0  0  0  0  0
    3.0990    2.6940   25.2490 C   0  0  2  0  0  0  0  0  0  0  0  0
    2.2120    2.6410   24.1310 O   0  0  0  0  0  0  0  0  0  0  0  0
   -0.0630    0.5220   24.8680 C   0  0  2  0  0  0  0  0  0  0  0  0
   -0.6620    1.7260   24.2420 N   0  0  0  0  0  0  0  0  0  0  0  0
    7.1350    7.0840   29.3370 C   0  0  1  0  0  0  0  0  0  0  0  0
    7.0290    6.9040   30.7470 O   0  0  0  0  0  0  0  0  0  0  0  0
    5.6510    8.3240   24.4080 C   0  0  2  0  0  0  0  0  0  0  0  0
    7.0470    8.7870   24.2650 N   0  0  0  0  0  0  0  0  0  0  0  0
    2.5370    1.9160   26.4420 C   0  0  2  0  0  0  0  0  0  0  0  0
    1.0860    2.0000   26.5060 O   0  0  0  0  0  0  0  0  0  0  0  0
   -1.0090   -0.7120   24.7440 C   0  0  1  0  0  0  0  0  0  0  0  0
   -0.2370   -1.8960   24.9330 O   0  0  0  0  0  0  0  0  0  0  0  0
    8.6300    7.2690   28.9750 C   0  0  2  0  0  0  0  0  0  0  0  0
    9.1210    8.4440   29.6130 O   0  0  0  0  0  0  0  0  0  0  0  0
    5.5850    6.8850   25.0350 C   0  0  2  0  0  0  0  0  0  0  0  0
    3.1730    2.6480   27.6320 C   0  0  2  0  0  0  0  0  0  0  0  0
    3.3140    4.0220   27.2220 O   0  0  0  0  0  0  0  0  0  0  0  0
   -2.1790   -0.7230   25.7740 C   0  0  2  0  0  0  0  0  0  0  0  0
   -3.1350    0.2650   25.3860 O   0  0  0  0  0  0  0  0  0  0  0  0
    8.8040    7.3700   27.4330 C   0  0  2  0  0  0  0  0  0  0  0  0
    8.1890    6.2050   26.8050 O   0  0  0  0  0  0  0  0  0  0  0  0
    4.1570    6.2370   24.9300 C   0  0  2  0  0  0  0  0  0  0  0  0
    4.2820    4.8200   25.2180 O   0  0  0  0  0  0  0  0  0  0  0  0
    4.5430    2.0720   28.0320 C   0  0  0  0  0  0  0  0  0  0  0  0
    5.0990    2.7970   29.1150 O   0  0  0  0  0  0  0  0  0  0  0  0
   -1.6530   -0.4280   27.2130 C   0  0  1  0  0  0  0  0  0  0  0  0
   -0.8490    0.7910   27.2010 O   0  0  0  0  0  0  0  0  0  0  0  0
   10.2700    7.4120   26.9470 C   0  0  0  0  0  0  0  0  0  0  0  0
   11.0530    6.4180   27.5860 O   0  0  0  0  0  0  0  0  0  0  0  0
    3.5190    6.3960   23.5150 C   0  0  1  0  0  0  0  0  0  0  0  0
    2.1700    5.9340   23.5650 O   0  0  0  0  0  0  0  0  0  0  0  0
   -2.7970   -0.2690   28.2470 C   0  0  0  0  0  0  0  0  0  0  0  0
   -2.7590   -1.3070   29.2930 N   0  0  0  0  0  0  0  0  0  0  0  0
    4.5380    6.4580   28.3170 H   0  0  0  0  0  0  0  0  0  0  0  0
    4.6970    4.8590   28.6150 H   0  0  0  0  0  0  0  0  0  0  0  0
   -1.9650   -1.1430   29.9240 H   0  0  0  0  0  0  0  0  0  0  0  0
   -2.5920   -2.2270   28.8710 H   0  0  0  0  0  0  0  0  0  0  0  0
    2.3900    3.4300   23.6130 H   0  0  0  0  0  0  0  0  0  0  0  0
    7.4290    6.0540   30.9370 H   0  0  0  0  0  0  0  0  0  0  0  0
    0.3310   -1.9660   24.1620 H   0  0  0  0  0  0  0  0  0  0  0  0
    9.9460    8.1920   30.0360 H   0  0  0  0  0  0  0  0  0  0  0  0
   -3.3340    0.0930   24.4630 H   0  0  0  0  0  0  0  0  0  0  0  0
    4.5390    2.6100   29.8720 H   0  0  0  0  0  0  0  0  0  0  0  0
   11.2400    6.7530   28.4650 H   0  0  0  0  0  0  0  0  0  0  0  0
    1.7300    6.4740   24.2260 H   0  0  0  0  0  0  0  0  0  0  0  0
    6.5110    4.9830   26.6070 H   0  0  0  0  0  0  0  0  0  0  0  0
    2.9340    8.4810   23.7190 H   0  0  0  0  0  0  0  0  0  0  0  0
    2.1960    4.6460   25.5740 H   0  0  0  0  0  0  0  0  0  0  0  0
    1.0020   -0.0790   26.6720 H   0  0  0  0  0  0  0  0  0  0  0  0
    6.9830    4.9430   28.9600 H   0  0  0  0  0  0  0  0  0  0  0  0
    4.0960    2.3230   24.9440 H   0  0  0  0  0  0  0  0  0  0  0  0
    0.8660    0.2870   24.3010 H   0  0  0  0  0  0  0  0  0  0  0  0
    6.5870    8.0070   29.0590 H   0  0  0  0  0  0  0  0  0  0  0  0
    5.1290    9.0260   25.0850 H   0  0  0  0  0  0  0  0  0  0  0  0
    2.9050    0.8690   26.3930 H   0  0  0  0  0  0  0  0  0  0  0  0
   -1.4240   -0.7700   23.7200 H   0  0  0  0  0  0  0  0  0  0  0  0
    9.2000    6.3950   29.3470 H   0  0  0  0  0  0  0  0  0  0  0  0
    6.3080    6.2360   24.5010 H   0  0  0  0  0  0  0  0  0  0  0  0
    2.4920    2.6100   28.5050 H   0  0  0  0  0  0  0  0  0  0  0  0
   -2.6800   -1.7090   25.7540 H   0  0  0  0  0  0  0  0  0  0  0  0
    8.2830    8.2770   27.0690 H   0  0  0  0  0  0  0  0  0  0  0  0
    3.5070    6.7350   25.6780 H   0  0  0  0  0  0  0  0  0  0  0  0
   -1.0220   -1.2820   27.5310 H   0  0  0  0  0  0  0  0  0  0  0  0
    4.0800    5.7600   22.8030 H   0  0  0  0  0  0  0  0  0  0  0  0
    2.8040    7.0640   21.2670 H   0  0  0  0  0  0  0  0  0  0  0  0
    2.0190    8.4200   21.7380 H   0  0  0  0  0  0  0  0  0  0  0  0
    4.9420    9.4780   22.7060 H   0  0  0  0  0  0  0  0  0  0  0  0
    5.5870    7.8800   22.2450 H   0  0  0  0  0  0  0  0  0  0  0  0
   -0.1460    2.5660   24.5310 H   0  0  0  0  0  0  0  0  0  0  0  0
   -0.5670    1.6770   23.2220 H   0  0  0  0  0  0  0  0  0  0  0  0
    7.3720    9.1990   25.1470 H   0  0  0  0  0  0  0  0  0  0  0  0
    7.6680    7.9910   24.0840 H   0  0  0  0  0  0  0  0  0  0  0  0
    5.2440    2.1550   27.1690 H   0  0  0  0  0  0  0  0  0  0  0  0
    4.4690    1.0000   28.2950 H   0  0  0  0  0  0  0  0  0  0  0  0
   10.6930    8.4090   27.1990 H   0  0  0  0  0  0  0  0  0  0  0  0
   10.3410    7.3070   25.8470 H   0  0  0  0  0  0  0  0  0  0  0  0
   -3.7780   -0.3140   27.7390 H   0  0  0  0  0  0  0  0  0  0  0  0
   -2.7460    0.7270   28.7250 H   0  0  0  0  0  0  0  0  0  0  0  0
  1  2  1  0  0  0  0
  1  7  1  0  0  0  0
  1 30  1  0  0  0  0
  1 55  1  6  0  0  0
  2 24  1  0  0  0  0
  3  4  1  0  0  0  0
  3  9  1  0  0  0  0
  3 39  1  0  0  0  0
  3 56  1  1  0  0  0
  4 74  1  0  0  0  0
  4 75  1  0  0  0  0
  5 10  1  0  0  0  0
  5 26  1  0  0  0  0
  5 57  1  6  0  0  0
  6 12  1  0  0  0  0
  6 36  1  0  0  0  0
  6 58  1  1  0  0  0
  7  8  1  0  0  0  0
  7 14  1  0  0  0  0
  7 59  1  1  0  0  0
  8 43  1  0  0  0  0
  8 44  1  0  0  0  0
  9 16  1  0  0  0  0
  9 76  1  0  0  0  0
  9 77  1  0  0  0  0
 10 11  1  0  0  0  0
 10 18  1  0  0  0  0
 10 60  1  6  0  0  0
 11 47  1  0  0  0  0
 12 13  1  0  0  0  0
 12 20  1  0  0  0  0
 12 61  1  6  0  0  0
 13 78  1  0  0  0  0
 13 79  1  0  0  0  0
 14 15  1  0  0  0  0
 14 22  1  0  0  0  0
 14 62  1  6  0  0  0
 15 48  1  0  0  0  0
 16 17  1  0  0  0  0
 16 24  1  0  0  0  0
 16 63  1  1  0  0  0
 17 80  1  0  0  0  0
 17 81  1  0  0  0  0
 18 19  1  0  0  0  0
 18 25  1  0  0  0  0
 18 64  1  6  0  0  0
 19  6  1  0  0  0  0
 20 21  1  0  0  0  0
 20 27  1  0  0  0  0
 20 65  1  6  0  0  0
 21 49  1  0  0  0  0
 22 23  1  0  0  0  0
 22 29  1  0  0  0  0
 22 66  1  1  0  0  0
 23 50  1  0  0  0  0
 24 31  1  0  0  0  0
 24 67  1  6  0  0  0
 25 26  1  0  0  0  0
 25 33  1  0  0  0  0
 25 68  1  1  0  0  0
 27 28  1  0  0  0  0
 27 35  1  0  0  0  0
 27 69  1  6  0  0  0
 28 51  1  0  0  0  0
 29 30  1  0  0  0  0
 29 37  1  0  0  0  0
 29 70  1  6  0  0  0
 31 32  1  0  0  0  0
 31 39  1  0  0  0  0
 31 71  1  1  0  0  0
 32  5  1  0  0  0  0
 33 34  1  0  0  0  0
 33 82  1  0  0  0  0
 33 83  1  0  0  0  0
 34 52  1  0  0  0  0
 35 36  1  0  0  0  0
 35 41  1  0  0  0  0
 35 72  1  1  0  0  0
 37 38  1  0  0  0  0
 37 84  1  0  0  0  0
 37 85  1  0  0  0  0
 38 53  1  0  0  0  0
 39 40  1  0  0  0  0
 39 73  1  6  0  0  0
 40 54  1  0  0  0  0
 41 42  1  0  0  0  0
 41 86  1  0  0  0  0
 41 87  1  0  0  0  0
 42 45  1  0  0  0  0
 42 46  1  0  0  0  0
M  END
$$$$
