ligand
  PyMOL2.3          3D                             0

  8  8  0  0  0  0  0  0  0  0999 V2000
   11.0480   13.1520    0.6290 C   0  0  0  0  0  0  0  0  0  0  0  0
   11.0290   12.4190    1.7420 N   0  0  0  0  0  0  0  0  0  0  0  0
   10.4680   11.2070    1.7260 C   0  0  0  0  0  0  0  0  0  0  0  0
    9.9350   10.7180    0.5820 N   0  0  0  0  0  0  0  0  0  0  0  0
    9.9550   11.4690   -0.5320 C   0  0  0  0  0  0  0  0  0  0  0  0
   10.5160   12.6880   -0.5140 N   0  0  0  0  0  0  0  0  0  0  0  0
   10.4620   10.4230    2.9790 N   0  0  0  0  0  0  0  0  0  0  0  0
   11.6260   14.3740    0.6840 O   0  0  0  0  0  0  0  0  0  0  0  0
  1  2  4  0  0  0  0
  1  6  4  0  0  0  0
  1  8  2  0  0  0  0
  2  3  4  0  0  0  0
  3  4  4  0  0  0  0
  3  7  1  0  0  0  0
  4  5  4  0  0  0  0
  5  6  4  0  0  0  0
M  END
$$$$
