ligand
  PyMOL2.2          3D                             0

 31 32  0  0  0  0  0  0  0  0999 V2000
    4.8940   18.0120   51.1110 C   0  0  0  0  0  0  0  0  0  0  0  0
    5.4360   17.3090   49.8700 C   0  0  0  0  0  0  0  0  0  0  0  0
    5.2730   15.8940   49.7170 C   0  0  0  0  0  0  0  0  0  0  0  0
    5.7810   15.2470   48.5650 C   0  0  0  0  0  0  0  0  0  0  0  0
    6.4440   15.9890   47.5570 C   0  0  0  0  0  0  0  0  0  0  0  0
    6.6080   17.3830   47.6880 C   0  0  0  0  0  0  0  0  0  0  0  0
    6.1120   18.0440   48.8260 C   0  0  0  0  0  0  0  0  0  0  0  0
    4.3070   17.3640   51.9770 O   0  0  0  0  0  0  0  0  0  0  0  0
   13.5530   18.7630   54.2970 C   0  0  0  0  0  0  0  0  0  0  0  0
    5.9550   21.4790   54.5220 C   0  0  0  0  0  0  0  0  0  0  0  0
    0.3330   19.6110   53.6160 P   0  0  0  0  0  0  0  0  0  0  0  0
   11.1950   18.7030   53.8840 N   0  0  0  0  0  0  0  0  0  0  0  0
    0.5030   20.2780   52.3110 O   0  0  0  0  0  0  0  0  0  0  0  0
    5.0540   19.3770   51.2750 S   0  0  0  0  0  0  0  0  0  0  0  0
    7.6160   20.0590   51.5220 C   0  0  0  0  0  0  0  0  0  0  0  0
   12.3070   19.4890   54.0860 C   0  0  0  0  0  0  0  0  0  0  0  0
   -0.7330   20.1940   54.4750 O   0  5  0  0  0  0  0  0  0  0  0  0
    7.4770   20.5830   52.7650 N   0  0  0  0  0  0  0  0  0  0  0  0
   12.2880   20.7850   54.0950 N   0  0  0  0  0  0  0  0  0  0  0  0
    0.2050   18.1470   53.4300 O   0  0  0  0  0  0  0  0  0  0  0  0
    6.0910   20.7030   53.2400 C   0  0  0  0  0  0  0  0  0  0  0  0
   11.1020   21.4670   53.9010 C   0  0  0  0  0  0  0  0  0  0  0  0
   11.1190   22.8020   53.9210 N   0  0  0  0  0  0  0  0  0  0  0  0
    4.8910   20.1800   52.5940 C   0  0  0  0  0  0  0  0  0  0  0  0
    9.8800   20.7070   53.6890 C   0  0  0  0  0  0  0  0  0  0  0  0
    8.4850   20.6080   50.8810 O   0  0  0  0  0  0  0  0  0  0  0  0
    3.5100   20.3760   53.1110 C   0  0  0  0  0  0  0  0  0  0  0  0
   10.0100   19.3330   53.6890 C   0  0  0  0  0  0  0  0  0  0  0  0
    2.9670   19.4460   54.1090 C   0  0  0  0  0  0  0  0  0  0  0  0
    8.5480   21.3950   53.5150 C   0  0  0  0  0  0  0  0  0  0  0  0
    1.6270   19.8150   54.4790 O   0  0  0  0  0  0  0  0  0  0  0  0
  1  2  1  0  0  0  0
  1  8  2  0  0  0  0
  2  3  4  0  0  0  0
  2  7  4  0  0  0  0
  3  4  4  0  0  0  0
  4  5  4  0  0  0  0
  5  6  4  0  0  0  0
  6  7  4  0  0  0  0
  9 16  1  0  0  0  0
 11 13  1  0  0  0  0
 11 17  1  0  0  0  0
 11 20  2  0  0  0  0
 12 16  4  0  0  0  0
 12 28  4  0  0  0  0
  1 14  1  0  0  0  0
 14 24  1  0  0  0  0
 15 26  1  0  0  0  0
 16 19  4  0  0  0  0
 15 18  1  0  0  0  0
 18 21  1  0  0  0  0
 18 30  1  0  0  0  0
 19 22  4  0  0  0  0
 10 21  1  0  0  0  0
 22 23  1  0  0  0  0
 22 25  4  0  0  0  0
 21 24  1  0  0  0  0
 24 27  1  0  0  0  0
 25 28  4  0  0  0  0
 25 30  1  0  0  0  0
 27 29  1  0  0  0  0
 29 31  1  0  0  0  0
 11 31  1  0  0  0  0
M  END
$$$$
