ligand
  PyMOL2.2          3D                             0

 26 28  0  0  0  0  0  0  0  0999 V2000
  -14.0790    7.4170  -16.4490 N   0  0  0  0  0  0  0  0  0  0  0  0
  -15.1040    8.2470  -17.0940 C   0  0  0  0  0  0  0  0  0  0  0  0
  -16.4480    7.5820  -16.9540 C   0  0  0  0  0  0  0  0  0  0  0  0
  -16.5240    6.3770  -16.8970 O   0  0  0  0  0  0  0  0  0  0  0  0
  -14.7670    8.4110  -18.5770 C   0  0  0  0  0  0  0  0  0  0  0  0
  -13.4040    9.0860  -18.7190 C   0  0  0  0  0  0  0  0  0  0  0  0
  -13.0070    9.9420  -20.1310 S   0  0  0  0  0  0  0  0  0  0  0  0
  -11.6150   10.9090  -20.7700 C   0  0  0  0  0  0  0  0  0  0  0  0
  -11.9330   11.7460  -22.0150 C   0  0  0  0  0  0  0  0  0  0  0  0
  -11.8260   13.1370  -21.7730 O   0  0  0  0  0  0  0  0  0  0  0  0
  -10.9350   11.5150  -23.1250 C   0  0  0  0  0  0  0  0  0  0  0  0
  -11.6170   11.8730  -24.3070 O   0  0  0  0  0  0  0  0  0  0  0  0
   -9.8390   12.5280  -22.8890 C   0  0  0  0  0  0  0  0  0  0  0  0
   -9.4200   13.0710  -24.1220 O   0  0  0  0  0  0  0  0  0  0  0  0
  -10.5230   13.6020  -22.0710 C   0  0  0  0  0  0  0  0  0  0  0  0
  -17.5640    8.3270  -16.8950 O   0  0  0  0  0  0  0  0  0  0  0  0
   -7.0280   16.6160  -19.6390 N   0  0  0  0  0  0  0  0  0  0  0  0
   -7.3520   16.6020  -20.9750 C   0  0  0  0  0  0  0  0  0  0  0  0
   -8.2990   15.7180  -21.4330 N   0  0  0  0  0  0  0  0  0  0  0  0
   -8.9130   14.8680  -20.5870 C   0  0  0  0  0  0  0  0  0  0  0  0
   -8.6030   14.8660  -19.2400 C   0  0  0  0  0  0  0  0  0  0  0  0
   -7.6440   15.7540  -18.7670 C   0  0  0  0  0  0  0  0  0  0  0  0
   -7.3130   15.7830  -17.4820 N   0  0  0  0  0  0  0  0  0  0  0  0
   -9.3590   13.9240  -18.6330 N   0  0  0  0  0  0  0  0  0  0  0  0
  -10.1370   13.3430  -19.5670 C   0  0  0  0  0  0  0  0  0  0  0  0
   -9.8660   13.9080  -20.7870 N   0  0  0  0  0  0  0  0  0  0  0  0
  1  2  1  0  0  0  0
  2  3  1  0  0  0  0
  2  5  1  0  0  0  0
  3  4  4  0  0  0  0
  3 16  4  0  0  0  0
  5  6  1  0  0  0  0
  6  7  1  0  0  0  0
  7  8  1  0  0  0  0
  8  9  1  0  0  0  0
  9 10  1  0  0  0  0
  9 11  1  0  0  0  0
 10 15  1  0  0  0  0
 11 12  1  0  0  0  0
 11 13  1  0  0  0  0
 13 14  1  0  0  0  0
 13 15  1  0  0  0  0
 15 26  1  0  0  0  0
 17 18  4  0  0  0  0
 18 19  4  0  0  0  0
 19 20  4  0  0  0  0
 20 21  4  0  0  0  0
 21 22  4  0  0  0  0
 17 22  4  0  0  0  0
 22 23  1  0  0  0  0
 21 24  4  0  0  0  0
 24 25  4  0  0  0  0
 20 26  4  0  0  0  0
 25 26  4  0  0  0  0
M  END
$$$$
