pro
  PyMOL2.4          3D                             0

 20 21  0  0  0  0  0  0  0  0999 V2000
    2.4830   -4.8970   -8.3230 P   0  0  0  0  0  0  0  0  0  0  0  0
    3.6850   -2.6060   -8.7630 C   0  0  0  0  0  0  0  0  0  0  0  0
    3.3270   -3.6360   -7.8510 O   0  0  0  0  0  0  0  0  0  0  0  0
    4.1680   -1.3970   -8.0000 C   0  0  0  0  0  0  0  0  0  0  0  0
    3.1970   -1.0990   -6.9630 O   0  0  0  0  0  0  0  0  0  0  0  0
    5.4660   -1.5660   -7.2260 C   0  0  0  0  0  0  0  0  0  0  0  0
    6.6190   -1.4130   -8.0370 O   0  0  0  0  0  0  0  0  0  0  0  0
    5.3430   -0.5110   -6.1360 C   0  0  0  0  0  0  0  0  0  0  0  0
    5.6420    0.7840   -6.6350 O   0  0  0  0  0  0  0  0  0  0  0  0
    3.8500   -0.5840   -5.8090 C   0  0  0  0  0  0  0  0  0  0  0  0
    3.5670   -1.4390   -4.6420 N   0  0  0  0  0  0  0  0  0  0  0  0
    3.5740   -0.8380   -3.3770 C   0  0  0  0  0  0  0  0  0  0  0  0
    3.8450    0.3720   -3.2900 O   0  0  0  0  0  0  0  0  0  0  0  0
    3.2890   -1.5790   -2.2870 N   0  0  0  0  0  0  0  0  0  0  0  0
    2.9920   -2.8720   -2.4170 C   0  0  0  0  0  0  0  0  0  0  0  0
    2.7010   -3.5500   -1.3060 N   0  0  0  0  0  0  0  0  0  0  0  0
    2.9750   -3.5170   -3.6880 C   0  0  0  0  0  0  0  0  0  0  0  0
    3.2760   -2.7730   -4.7640 C   0  0  0  0  0  0  0  0  0  0  0  0
    2.9220   -5.2520   -9.6900 O   0  0  0  0  0  0  0  0  0  0  0  0
    2.5500   -5.9200   -7.2520 O   0  5  0  0  0  0  0  0  0  0  0  0
  1  3  1  0  0  0  0
  1 19  2  0  0  0  0
  1 20  1  0  0  0  0
  2  4  1  0  0  0  0
  2  3  1  0  0  0  0
  4  5  1  0  0  0  0
  4  6  1  0  0  0  0
  5 10  1  0  0  0  0
  6  7  1  0  0  0  0
  6  8  1  0  0  0  0
  8  9  1  0  0  0  0
  8 10  1  0  0  0  0
 10 11  1  0  0  0  0
 11 12  1  0  0  0  0
 11 18  1  0  0  0  0
 12 13  2  0  0  0  0
 12 14  1  0  0  0  0
 14 15  2  0  0  0  0
 15 16  1  0  0  0  0
 15 17  1  0  0  0  0
 17 18  2  0  0  0  0
M  END
$$$$
