ligand
  PyMOL2.2          3D                             0

 12 12  0  0  0  0  0  0  0  0999 V2000
   51.4720   15.0530   12.0650 O   0  0  0  0  0  0  0  0  0  0  0  0
   45.2990   10.7040   11.4510 O   0  0  0  0  0  0  0  0  0  0  0  0
   50.5440   15.1560   10.9430 C   0  0  0  0  0  0  0  0  0  0  0  0
   45.5500   10.9990   13.8860 O   0  0  0  0  0  0  0  0  0  0  0  0
   49.4770   14.0240   10.9900 C   0  0  0  0  0  0  0  0  0  0  0  0
   45.1430   12.3450   12.5030 O   0  0  0  0  0  0  0  0  0  0  0  0
   49.7210   13.1690   12.2030 N   0  0  0  0  0  0  0  0  0  0  0  0
   51.1030   12.6010   12.1710 C   0  0  0  0  0  0  0  0  0  0  0  0
   52.1380   13.7560   12.0570 C   0  0  0  0  0  0  0  0  0  0  0  0
   48.7260   12.0450   12.3070 C   0  0  0  0  0  0  0  0  0  0  0  0
   47.2760   12.5840   12.3600 C   0  0  0  0  0  0  0  0  0  0  0  0
   46.0870   11.2330   12.5370 S   0  0  0  0  0  0  0  0  0  0  0  0
  1  3  1  0  0  0  0
  1  9  1  0  0  0  0
  3  5  1  0  0  0  0
  5  7  1  0  0  0  0
  7  8  1  0  0  0  0
  7 10  1  0  0  0  0
  8  9  1  0  0  0  0
 10 11  1  0  0  0  0
 11 12  1  0  0  0  0
  2 12  1  0  0  0  0
  4 12  2  0  0  0  0
  6 12  2  0  0  0  0
M  END
$$$$
