ligand
  PyMOL2.2          3D                             0

 34 36  0  0  0  0  0  0  0  0999 V2000
    5.8100    5.9100    8.7980 C   0  0  0  0  0  0  0  0  0  0  0  0
    6.3650    5.5730    7.5170 O   0  0  0  0  0  0  0  0  0  0  0  0
    9.3500    7.3440    5.0240 C   0  0  0  0  0  0  0  0  0  0  0  0
   10.1120    8.3210    4.2540 N   0  0  0  0  0  0  0  0  0  0  0  0
   11.4640    8.8890    7.2660 C   0  0  0  0  0  0  0  0  0  0  0  0
    5.8350    4.6190    9.6920 C   0  0  0  0  0  0  0  0  0  0  0  0
    7.2100    4.1320    9.8830 N   0  0  0  0  0  0  0  0  0  0  0  0
    7.8700    7.4010    4.5180 C   0  0  0  0  0  0  0  0  0  0  0  0
   12.9270    8.6700    6.7380 C   0  0  0  0  0  0  0  0  0  0  0  0
   12.8990    8.3670    5.3530 O   0  0  0  0  0  0  0  0  0  0  0  0
    4.9760    3.5210    9.0280 C   0  0  0  0  0  0  0  0  0  0  0  0
    4.9880    2.3390    9.8450 O   0  0  0  0  0  0  0  0  0  0  0  0
    7.0560    6.3360    5.3280 C   0  0  0  0  0  0  0  0  0  0  0  0
    5.6430    6.3460    4.8980 N   0  0  0  0  0  0  0  0  0  0  0  0
   13.5910    7.4990    7.5610 C   0  0  0  0  0  0  0  0  0  0  0  0
   14.9830    7.2400    7.0850 N   0  0  0  0  0  0  0  0  0  0  0  0
    3.5400    4.0620    8.8310 C   0  0  0  0  0  0  0  0  0  0  0  0
    2.7300    3.0530    8.2030 O   0  0  0  0  0  0  0  0  0  0  0  0
    7.1200    6.6280    6.8490 C   0  0  0  0  0  0  0  0  0  0  0  0
   13.5970    7.8840    9.0800 C   0  0  0  0  0  0  0  0  0  0  0  0
   14.3730    9.0640    9.2710 O   0  0  0  0  0  0  0  0  0  0  0  0
    3.5830    5.3650    7.9450 C   0  0  0  0  0  0  0  0  0  0  0  0
    4.4330    6.3840    8.5910 O   0  0  0  0  0  0  0  0  0  0  0  0
    8.5990    6.6290    7.3100 C   0  0  0  0  0  0  0  0  0  0  0  0
    8.6340    6.9170    8.7040 O   0  0  0  0  0  0  0  0  0  0  0  0
   12.1270    8.1510    9.5330 C   0  0  0  0  0  0  0  0  0  0  0  0
   11.5030    9.2070    8.7000 O   0  0  0  0  0  0  0  0  0  0  0  0
    2.1700    5.9690    7.7340 C   0  0  0  0  0  0  0  0  0  0  0  0
    2.2690    7.1340    6.9190 O   0  0  0  0  0  0  0  0  0  0  0  0
    9.4180    7.7080    6.5640 C   0  0  0  0  0  0  0  0  0  0  0  0
   10.7760    7.6240    7.0570 O   0  0  0  0  0  0  0  0  0  0  0  0
    1.5310    6.3710    9.0530 C   0  0  0  0  0  0  0  0  0  0  0  0
   14.2040    6.7870    9.9460 C   0  0  0  0  0  0  0  0  0  0  0  0
   14.9620    6.0420    6.2240 C   0  0  0  0  0  0  0  0  0  0  0  0
  1  2  1  0  0  0  0
  1  6  1  0  0  0  0
  1 23  1  0  0  0  0
  2 19  1  0  0  0  0
  3  4  1  0  0  0  0
  3  8  1  0  0  0  0
  3 30  1  0  0  0  0
  5  9  1  0  0  0  0
  5 27  1  0  0  0  0
  6  7  1  0  0  0  0
  6 11  1  0  0  0  0
  8 13  1  0  0  0  0
  9 10  1  0  0  0  0
  9 15  1  0  0  0  0
 11 12  1  0  0  0  0
 11 17  1  0  0  0  0
 13 14  1  0  0  0  0
 13 19  1  0  0  0  0
 15 16  1  0  0  0  0
 15 20  1  0  0  0  0
 16 34  1  0  0  0  0
 17 18  1  0  0  0  0
 17 22  1  0  0  0  0
 19 24  1  0  0  0  0
 20 21  1  0  0  0  0
 20 26  1  0  0  0  0
 20 33  1  0  0  0  0
 22 23  1  0  0  0  0
 22 28  1  0  0  0  0
 24 25  1  0  0  0  0
 24 30  1  0  0  0  0
 26 27  1  0  0  0  0
 28 29  1  0  0  0  0
 28 32  1  0  0  0  0
 30 31  1  0  0  0  0
  5 31  1  0  0  0  0
M  END
$$$$
