ligand
  PyMOL2.2          3D                             0

  4  3  0  0  0  0  0  0  0  0999 V2000
   35.9920   19.8870   10.5650 C   0  0  0  0  0  0  0  0  0  0  0  0
   35.9340   19.5090   11.7560 O   0  0  0  0  0  0  0  0  0  0  0  0
   35.9590   18.7930    9.5060 C   0  0  0  0  0  0  0  0  0  0  0  0
   36.0800   21.1100   10.1070 O   0  0  0  0  0  0  0  0  0  0  0  0
  1  2  4  0  0  0  0
  1  3  1  0  0  0  0
  1  4  4  0  0  0  0
M  END
$$$$
