ligand
  PyMOL2.2          3D                             0

 28 32  0  0  0  0  0  0  0  0999 V2000
   44.8920   27.3000   21.9740 C   0  0  0  0  0  0  0  0  0  0  0  0
   44.1080   26.3020   22.8030 C   0  0  0  0  0  0  0  0  0  0  0  0
   42.9890   26.9760   23.5830 C   0  0  0  0  0  0  0  0  0  0  0  0
   34.4790   25.3810   26.0070 O   0  0  0  0  0  0  0  0  0  0  0  0
   35.5370   25.3180   25.0490 C   0  0  0  0  0  0  0  0  0  0  0  0
   39.1660   24.7250   28.3340 C   0  0  0  0  0  0  0  0  0  0  0  0
   38.9260   25.9850   28.8670 C   0  0  0  0  0  0  0  0  0  0  0  0
   37.9260   26.7890   28.3140 C   0  0  0  0  0  0  0  0  0  0  0  0
   37.1660   26.3360   27.2350 C   0  0  0  0  0  0  0  0  0  0  0  0
   36.7020   24.4690   25.5740 C   0  0  0  0  0  0  0  0  0  0  0  0
   37.4040   25.0740   26.7430 C   0  0  0  0  0  0  0  0  0  0  0  0
   38.3890   24.2890   27.2870 C   0  0  0  0  0  0  0  0  0  0  0  0
   38.5900   23.0110   26.6310 C   0  0  0  0  0  0  0  0  0  0  0  0
   37.1020   21.0470   26.9770 C   0  0  0  0  0  0  0  0  0  0  0  0
   37.3020   22.3430   26.5660 C   0  0  0  0  0  0  0  0  0  0  0  0
   36.2920   23.0880   26.0190 C   0  0  0  0  0  0  0  0  0  0  0  0
   35.0290   22.5350   25.8670 C   0  0  0  0  0  0  0  0  0  0  0  0
   34.8050   21.2260   26.2990 C   0  0  0  0  0  0  0  0  0  0  0  0
   35.8410   20.4870   26.8550 C   0  0  0  0  0  0  0  0  0  0  0  0
   41.6720   26.2390   23.3770 C   0  0  0  0  0  0  0  0  0  0  0  0
   40.7030   26.5520   24.5110 C   0  0  0  0  0  0  0  0  0  0  0  0
   38.0880   26.4300   23.7210 O   0  0  0  0  0  0  0  0  0  0  0  0
   41.1860   23.9880   25.5980 O   0  0  0  0  0  0  0  0  0  0  0  0
   40.1000   24.2950   25.1350 C   0  0  0  0  0  0  0  0  0  0  0  0
   39.7960   25.4200   24.6150 N   0  0  0  0  0  0  0  0  0  0  0  0
   38.5930   25.4700   24.2430 C   0  0  0  0  0  0  0  0  0  0  0  0
   37.8310   24.2300   24.5590 C   0  0  0  0  0  0  0  0  0  0  0  0
   38.9320   23.3760   25.1930 C   0  0  0  0  0  0  0  0  0  0  0  0
  1  2  1  0  0  0  0
  2  3  1  0  0  0  0
  4  5  1  0  0  0  0
  6  7  4  0  0  0  0
  7  8  4  0  0  0  0
  8  9  4  0  0  0  0
  5 10  1  0  0  0  0
  9 11  4  0  0  0  0
 10 11  1  0  0  0  0
  6 12  4  0  0  0  0
 11 12  4  0  0  0  0
 12 13  1  0  0  0  0
 13 15  1  0  0  0  0
 14 15  4  0  0  0  0
 15 16  4  0  0  0  0
 10 16  1  0  0  0  0
 16 17  4  0  0  0  0
 17 18  4  0  0  0  0
 18 19  4  0  0  0  0
 14 19  4  0  0  0  0
  3 20  1  0  0  0  0
 20 21  1  0  0  0  0
 23 24  2  0  0  0  0
 24 25  1  0  0  0  0
 24 28  1  0  0  0  0
 21 25  1  0  0  0  0
 22 26  2  0  0  0  0
 25 26  1  0  0  0  0
 10 27  1  0  0  0  0
 26 27  1  0  0  0  0
 13 28  1  0  0  0  0
 27 28  1  0  0  0  0
M  END
$$$$
