2fcz_lig
 OpenBabel02221317003D

 31 33  0  0  1  0  0  0  0  0999 V2000
    8.0690   16.5270   35.8080 C   0  0  0  0  0  0  0  0  0  0  0  0
   14.2090   22.8360   36.5340 N   0  0  0  0  0  0  0  0  0  0  0  0
    8.0160   16.0970   34.4450 O   0  0  0  0  0  0  0  0  0  0  0  0
    9.5270   16.5700   36.2780 C   0  0  1  0  0  0  0  0  0  0  0  0
   11.2090   23.3180   32.6980 N   0  0  0  0  0  0  0  0  0  0  0  0
   10.2610   17.6360   35.6420 O   0  0  0  0  0  0  0  0  0  0  0  0
   10.5260   18.6790   36.6010 C   0  0  1  0  0  0  0  0  0  0  0  0
    6.8680   23.6560   32.5640 N   0  0  0  0  0  0  0  0  0  0  0  0
   10.2620   19.9920   36.0780 O   0  0  0  0  0  0  0  0  0  0  0  0
   11.3610   20.5720   35.3550 C   0  0  2  0  0  0  0  0  0  0  0  0
    9.9400   17.9880   32.8630 N   0  0  0  0  0  0  0  0  0  0  0  0
   12.8460   20.4630   37.2620 O   0  0  0  0  0  0  0  0  0  0  0  0
   12.2430   21.3630   36.3290 C   0  0  1  0  0  0  0  0  0  0  0  0
   10.2040   20.7300   33.1870 O   0  0  0  0  0  0  0  0  0  0  0  0
   13.3470   22.1180   35.5850 C   0  0  1  0  0  0  0  0  0  0  0  0
    7.8680   21.0560   33.2850 O   0  0  0  0  0  0  0  0  0  0  0  0
   12.7310   23.1130   34.5990 C   0  0  0  0  0  0  0  0  0  0  0  0
    7.3310   20.5660   29.6740 O   0  0  0  0  0  0  0  0  0  0  0  0
   11.8790   22.3510   33.5820 C   0  0  1  0  0  0  0  0  0  0  0  0
    8.3360   18.0020   30.4920 O   0  0  0  0  0  0  0  0  0  0  0  0
   10.8140   21.4760   34.2520 C   0  0  2  0  0  0  0  0  0  0  0  0
    9.9950   18.9490   39.0010 O   0  0  0  0  0  0  0  0  0  0  0  0
    8.9460   20.1360   33.5390 C   0  0  1  0  0  0  0  0  0  0  0  0
   10.8330   16.3790   38.3360 O   0  0  0  0  0  0  0  0  0  0  0  0
    7.7260   21.4420   31.9070 C   0  0  2  0  0  0  0  0  0  0  0  0
    6.5710   22.4400   31.7930 C   0  0  0  0  0  0  0  0  0  0  0  0
    7.4430   20.2010   31.0530 C   0  0  2  0  0  0  0  0  0  0  0  0
    8.5920   19.2050   31.2240 C   0  0  1  0  0  0  0  0  0  0  0  0
    8.7700   18.8630   32.7050 C   0  0  1  0  0  0  0  0  0  0  0  0
    9.5710   18.3810   37.7580 C   0  0  2  0  0  0  0  0  0  0  0  0
    9.6050   16.8540   37.7780 C   0  0  1  0  0  0  0  0  0  0  0  0
  3  1  1  0  0  0  0
  4  1  1  1  0  0  0
  4  6  1  0  0  0  0
  4 31  1  0  0  0  0
  6  7  1  0  0  0  0
  7  9  1  6  0  0  0
  7 30  1  0  0  0  0
 10  9  1  1  0  0  0
 10 13  1  0  0  0  0
 10 21  1  0  0  0  0
 13 12  1  6  0  0  0
 13 15  1  0  0  0  0
 15  2  1  1  0  0  0
 15 17  1  0  0  0  0
 16 25  1  0  0  0  0
 17 19  1  0  0  0  0
 19  5  1  1  0  0  0
 19 21  1  0  0  0  0
 21 14  1  6  0  0  0
 23 14  1  6  0  0  0
 23 16  1  0  0  0  0
 23 29  1  0  0  0  0
 25 26  1  1  0  0  0
 25 27  1  0  0  0  0
 26  8  1  0  0  0  0
 27 18  1  6  0  0  0
 27 28  1  0  0  0  0
 28 20  1  1  0  0  0
 28 29  1  0  0  0  0
 29 11  1  6  0  0  0
 30 22  1  1  0  0  0
 30 31  1  0  0  0  0
 31 24  1  6  0  0  0
M  END
$$$$
