1uud_lig
 OpenBabel02221317003D

 57 57  0  0  0  0  0  0  0  0999 V2000
   -4.4430   -8.5910   -2.0040 C   0  0  0  0  0  0  0  0  0  0  0  0
   -3.6000   -9.8100   -4.5350 O   0  0  0  0  0  0  0  0  0  0  0  0
   -3.8900  -11.0770   -3.9260 C   0  0  0  0  0  0  0  0  0  0  0  0
   -2.9840   -8.5050   -2.2610 N   0  0  0  0  0  0  0  0  0  0  0  0
   -4.7670  -11.9240   -4.8580 C   0  0  0  0  0  0  0  0  0  0  0  0
   -2.2810   -8.0810   -1.0270 C   0  0  0  0  0  0  0  0  0  0  0  0
   -2.3020   -9.2250   -0.0060 C   0  0  0  0  0  0  0  0  0  0  0  0
   -4.1190  -12.1820   -5.9690 N   0  0  0  0  0  0  0  0  0  0  0  0
   -3.1480  -13.0750   -6.0100 C   0  0  0  0  0  0  0  0  0  0  0  0
   -0.8940   -9.4470    0.5570 C   0  0  0  0  0  0  0  0  0  0  0  0
   -0.2110  -10.5850   -0.2070 C   0  0  0  0  0  0  0  0  0  0  0  0
   -2.7630  -13.7640   -4.8930 N   0  0  0  0  0  0  0  0  0  0  0  0
   -2.5160  -13.3140   -7.1880 N   0  0  0  0  0  0  0  0  0  0  0  0
    0.9700  -10.8240    0.3120 N   0  0  0  0  0  0  0  0  0  0  0  0
    1.1030  -11.4710    1.4540 C   0  0  0  0  0  0  0  0  0  0  0  0
    2.3490  -11.7250    1.9300 N   0  0  0  0  0  0  0  0  0  0  0  0
    0.0170  -11.9000    2.1630 N   0  0  0  0  0  0  0  0  0  0  0  0
   -4.7700   -8.9820   -4.5300 C   0  0  0  0  0  0  0  0  0  0  0  0
   -8.2850   -6.5540   -4.5290 O   0  0  0  0  0  0  0  0  0  0  0  0
   -5.2170   -8.3750   -3.3210 C   0  0  0  0  0  0  0  0  0  0  0  0
   -6.3910   -7.5750   -3.3220 C   0  0  0  0  0  0  0  0  0  0  0  0
   -7.1060   -7.3630   -4.5300 C   0  0  0  0  0  0  0  0  0  0  0  0
   -6.6500   -7.9520   -5.7400 C   0  0  0  0  0  0  0  0  0  0  0  0
   -5.4780   -8.7560   -5.7430 C   0  0  0  0  0  0  0  0  0  0  0  0
   -7.9300   -5.1900   -4.2840 C   0  0  0  0  0  0  0  0  0  0  0  0
   -4.6810   -9.5630   -1.5990 H   0  0  0  0  0  0  0  0  0  0  0  0
   -4.7300   -7.8290   -1.2940 H   0  0  0  0  0  0  0  0  0  0  0  0
   -2.9660  -11.6010   -3.7320 H   0  0  0  0  0  0  0  0  0  0  0  0
   -2.8070   -7.8180   -3.0080 H   0  0  0  0  0  0  0  0  0  0  0  0
   -2.6320   -9.4270   -2.5540 H   0  0  0  0  0  0  0  0  0  0  0  0
   -4.4120  -10.9180   -2.9950 H   0  0  0  0  0  0  0  0  0  0  0  0
   -5.6740  -11.3820   -5.0880 H   0  0  0  0  0  0  0  0  0  0  0  0
   -2.7780   -7.2180   -0.6090 H   0  0  0  0  0  0  0  0  0  0  0  0
   -1.2590   -7.8250   -1.2670 H   0  0  0  0  0  0  0  0  0  0  0  0
   -5.0210  -12.8520   -4.3670 H   0  0  0  0  0  0  0  0  0  0  0  0
   -4.3660  -11.7070   -6.7900 H   0  0  0  0  0  0  0  0  0  0  0  0
   -2.9740   -8.9720    0.8010 H   0  0  0  0  0  0  0  0  0  0  0  0
   -2.6450  -10.1290   -0.4880 H   0  0  0  0  0  0  0  0  0  0  0  0
   -0.3160   -8.5420    0.4480 H   0  0  0  0  0  0  0  0  0  0  0  0
   -0.9620   -9.7070    1.6040 H   0  0  0  0  0  0  0  0  0  0  0  0
   -0.8190  -11.4760   -0.1430 H   0  0  0  0  0  0  0  0  0  0  0  0
   -3.2060  -13.6050   -4.0340 H   0  0  0  0  0  0  0  0  0  0  0  0
   -2.0390  -14.4220   -4.9530 H   0  0  0  0  0  0  0  0  0  0  0  0
   -0.0970  -10.3030   -1.2430 H   0  0  0  0  0  0  0  0  0  0  0  0
   -1.7930  -13.9750   -7.2310 H   0  0  0  0  0  0  0  0  0  0  0  0
   -2.7830  -12.8270   -7.9950 H   0  0  0  0  0  0  0  0  0  0  0  0
    1.7730  -10.5270   -0.1660 H   0  0  0  0  0  0  0  0  0  0  0  0
    2.4620  -12.2040    2.7760 H   0  0  0  0  0  0  0  0  0  0  0  0
    3.1350  -11.4300    1.4250 H   0  0  0  0  0  0  0  0  0  0  0  0
    0.1460  -12.3790    3.0080 H   0  0  0  0  0  0  0  0  0  0  0  0
   -0.8900  -11.7320    1.8330 H   0  0  0  0  0  0  0  0  0  0  0  0
   -6.7390   -7.1250   -2.4040 H   0  0  0  0  0  0  0  0  0  0  0  0
   -7.1940   -7.7890   -6.6560 H   0  0  0  0  0  0  0  0  0  0  0  0
   -5.1310   -9.2030   -6.6660 H   0  0  0  0  0  0  0  0  0  0  0  0
   -8.8010   -4.5640   -4.4060 H   0  0  0  0  0  0  0  0  0  0  0  0
   -7.1670   -4.8860   -4.9850 H   0  0  0  0  0  0  0  0  0  0  0  0
   -7.5540   -5.0920   -3.2770 H   0  0  0  0  0  0  0  0  0  0  0  0
  1  4  1  0  0  0  0
  1 26  1  0  0  0  0
  1 27  1  0  0  0  0
  2  3  1  0  0  0  0
  3  5  1  0  0  0  0
  3 28  1  0  0  0  0
  3 31  1  0  0  0  0
  4  6  1  0  0  0  0
  4 29  1  0  0  0  0
  4 30  1  0  0  0  0
  5  8  1  0  0  0  0
  5 32  1  0  0  0  0
  5 35  1  0  0  0  0
  6  7  1  0  0  0  0
  6 33  1  0  0  0  0
  6 34  1  0  0  0  0
  7 10  1  0  0  0  0
  7 37  1  0  0  0  0
  7 38  1  0  0  0  0
  8  9  1  0  0  0  0
  8 36  1  0  0  0  0
  9 12  1  0  0  0  0
  9 13  1  0  0  0  0
 10 11  1  0  0  0  0
 10 39  1  0  0  0  0
 10 40  1  0  0  0  0
 11 14  1  0  0  0  0
 11 41  1  0  0  0  0
 11 44  1  0  0  0  0
 12 42  1  0  0  0  0
 12 43  1  0  0  0  0
 13 45  1  0  0  0  0
 13 46  1  0  0  0  0
 14 15  1  0  0  0  0
 14 47  1  0  0  0  0
 15 16  1  0  0  0  0
 15 17  1  0  0  0  0
 16 48  1  0  0  0  0
 16 49  1  0  0  0  0
 17 50  1  0  0  0  0
 17 51  1  0  0  0  0
 18  2  1  0  0  0  0
 18 20  2  0  0  0  0
 18 24  1  0  0  0  0
 19 25  1  0  0  0  0
 20  1  1  0  0  0  0
 20 21  1  0  0  0  0
 21 22  2  0  0  0  0
 21 52  1  0  0  0  0
 22 19  1  0  0  0  0
 22 23  1  0  0  0  0
 23 24  2  0  0  0  0
 23 53  1  0  0  0  0
 24 54  1  0  0  0  0
 25 55  1  0  0  0  0
 25 56  1  0  0  0  0
 25 57  1  0  0  0  0
M  END
$$$$
