ligand
  PyMOL2.2          3D                             0

 10  9  0  0  0  0  0  0  0  0999 V2000
   32.3530   15.9150   19.3550 N   0  0  0  0  0  0  0  0  0  0  0  0
   31.8170   16.7650   20.4610 C   0  0  0  0  0  0  0  0  0  0  0  0
   32.9030   17.1780   21.4610 C   0  0  0  0  0  0  0  0  0  0  0  0
   34.1060   16.9600   21.2530 O   0  0  0  0  0  0  0  0  0  0  0  0
   30.6490   16.0700   21.1660 C   0  0  0  0  0  0  0  0  0  0  0  0
   29.3810   16.0540   20.3430 C   0  0  0  0  0  0  0  0  0  0  0  0
   28.2790   15.2810   21.0260 C   0  0  0  0  0  0  0  0  0  0  0  0
   27.0070   15.2750   20.1850 C   0  0  0  0  0  0  0  0  0  0  0  0
   27.1260   14.4740   18.9370 N   0  0  0  0  0  0  0  0  0  0  0  0
   32.6150   17.7800   22.5000 O   0  0  0  0  0  0  0  0  0  0  0  0
  1  2  1  0  0  0  0
  2  3  1  0  0  0  0
  2  5  1  0  0  0  0
  3  4  4  0  0  0  0
  3 10  4  0  0  0  0
  5  6  1  0  0  0  0
  6  7  1  0  0  0  0
  7  8  1  0  0  0  0
  8  9  1  0  0  0  0
M  END
$$$$
