1nta_lig
 OpenBabel02221317003D

 40 42  0  0  1  0  0  0  0  0999 V2000
    8.9020   33.4320   -1.1570 C   0  0  0  0  0  0  0  0  0  0  0  0
    9.5910   34.5060   -1.0480 N   0  0  0  0  0  0  0  0  0  0  0  0
    0.1410   35.9470   -4.6610 C   0  0  0  0  0  0  0  0  0  0  0  0
   -0.0960   35.5110   -5.7660 O   0  0  0  0  0  0  0  0  0  0  0  0
    3.9540   36.1630    1.2650 C   0  0  0  0  0  0  0  0  0  0  0  0
    4.7480   35.2110    1.6810 N   0  0  0  0  0  0  0  0  0  0  0  0
    0.1770   32.6980   -3.9510 C   0  0  0  0  0  0  0  0  0  0  0  0
    2.0320   39.3690   -1.4030 C   0  0  0  0  0  0  0  0  0  0  0  0
    6.6510   34.1610   -1.2030 C   0  0  2  0  0  0  0  0  0  0  0  0
    7.7600   33.4160   -0.4860 N   0  0  0  0  0  0  0  0  0  0  0  0
    1.4510   35.0870   -1.5930 C   0  0  2  0  0  0  0  0  0  0  0  0
    0.1830   37.1240   -0.3180 C   0  0  1  0  0  0  0  0  0  0  0  0
   -0.4300   36.4660   -1.3710 O   0  0  0  0  0  0  0  0  0  0  0  0
    5.8650   35.0300   -0.2030 C   0  0  1  0  0  0  0  0  0  0  0  0
    6.7530   35.9810    0.3020 O   0  0  0  0  0  0  0  0  0  0  0  0
    0.4360   36.0090   -2.2600 C   0  0  2  0  0  0  0  0  0  0  0  0
    0.1010   38.6340   -0.3620 C   0  0  1  0  0  0  0  0  0  0  0  0
    0.6220   39.0820   -1.6070 N   0  0  0  0  0  0  0  0  0  0  0  0
    4.7120   35.7910   -0.8710 C   0  0  2  0  0  0  0  0  0  0  0  0
    3.9300   36.6350    0.0640 N   0  0  0  0  0  0  0  0  0  0  0  0
   -0.0110   35.1730   -3.3790 C   0  0  1  0  0  0  0  0  0  0  0  0
   -1.3710   34.8160   -3.1240 O   0  0  0  0  0  0  0  0  0  0  0  0
   -1.2120   39.0670   -0.2410 C   0  0  2  0  0  0  0  0  0  0  0  0
   -1.1830   40.4500    0.0070 O   0  0  0  0  0  0  0  0  0  0  0  0
    3.7860   34.7720   -1.5160 C   0  0  1  0  0  0  0  0  0  0  0  0
    2.7240   35.4810   -2.1350 O   0  0  0  0  0  0  0  0  0  0  0  0
    0.7950   33.9460   -3.4010 C   0  0  1  0  0  0  0  0  0  0  0  0
    1.2030   33.7770   -2.0490 O   0  0  0  0  0  0  0  0  0  0  0  0
   -1.8920   38.3650    0.9050 C   0  0  1  0  0  0  0  0  0  0  0  0
   -3.2620   38.6350    0.8540 O   0  0  0  0  0  0  0  0  0  0  0  0
    4.5660   33.9220   -2.5590 C   0  0  2  0  0  0  0  0  0  0  0  0
    3.6790   32.9800   -3.1600 O   0  0  0  0  0  0  0  0  0  0  0  0
   -1.7000   36.8920    0.7790 C   0  0  1  0  0  0  0  0  0  0  0  0
   -0.3270   36.6330    0.8350 O   0  0  0  0  0  0  0  0  0  0  0  0
    5.7080   33.1670   -1.8470 C   0  0  1  0  0  0  0  0  0  0  0  0
    6.4410   32.3740   -2.7950 O   0  0  0  0  0  0  0  0  0  0  0  0
   -2.3660   36.1380    1.9470 C   0  0  0  0  0  0  0  0  0  0  0  0
   -2.2780   36.9300    3.1260 O   0  0  0  0  0  0  0  0  0  0  0  0
    9.2920   32.4290   -1.8670 N   0  0  0  0  0  0  0  0  0  0  0  0
    3.1070   36.6770    2.0680 N   0  0  0  0  0  0  0  0  0  0  0  0
  1  2  1  0  0  0  0
  1 39  1  0  0  0  0
  3  4  1  0  0  0  0
  5  6  1  0  0  0  0
  5 40  1  0  0  0  0
  9 10  1  1  0  0  0
  9 14  1  0  0  0  0
  9 35  1  0  0  0  0
 10  1  1  0  0  0  0
 11 16  1  0  0  0  0
 11 28  1  0  0  0  0
 11 26  1  6  0  0  0
 12 17  1  0  0  0  0
 12 34  1  0  0  0  0
 12 13  1  1  0  0  0
 14 15  1  6  0  0  0
 14 19  1  0  0  0  0
 16 13  1  1  0  0  0
 16 21  1  0  0  0  0
 17 18  1  6  0  0  0
 17 23  1  0  0  0  0
 18  8  1  0  0  0  0
 19 20  1  1  0  0  0
 19 25  1  0  0  0  0
 20  5  1  0  0  0  0
 21  3  1  6  0  0  0
 21 22  1  0  0  0  0
 21 27  1  0  0  0  0
 23 24  1  1  0  0  0
 23 29  1  0  0  0  0
 25 26  1  6  0  0  0
 25 31  1  0  0  0  0
 27  7  1  1  0  0  0
 27 28  1  0  0  0  0
 29 30  1  6  0  0  0
 29 33  1  0  0  0  0
 31 32  1  1  0  0  0
 31 35  1  0  0  0  0
 33 34  1  0  0  0  0
 33 37  1  1  0  0  0
 35 36  1  6  0  0  0
 37 38  1  0  0  0  0
M  END
$$$$
