ligand
  PyMOL2.3          3D                             0

 11 12  0  0  0  0  0  0  0  0999 V2000
  -12.0880  -12.6060    9.3870 N   0  0  0  0  0  0  0  0  0  0  0  0
  -11.6740  -13.8770    9.5130 C   0  0  0  0  0  0  0  0  0  0  0  0
  -11.7090  -14.4680   10.7040 N   0  0  0  0  0  0  0  0  0  0  0  0
  -11.2150  -14.5540    8.4490 N   0  0  0  0  0  0  0  0  0  0  0  0
  -11.1580  -13.9740    7.2410 C   0  0  0  0  0  0  0  0  0  0  0  0
  -11.5800  -12.6600    7.0830 C   0  0  0  0  0  0  0  0  0  0  0  0
  -12.0540  -11.9800    8.2000 C   0  0  0  0  0  0  0  0  0  0  0  0
  -12.4770  -10.7240    8.0920 N   0  0  0  0  0  0  0  0  0  0  0  0
  -11.4040  -12.3340    5.8060 N   0  0  0  0  0  0  0  0  0  0  0  0
  -10.8930  -13.3930    5.1820 C   0  0  0  0  0  0  0  0  0  0  0  0
  -10.7420  -14.3920    6.0490 N   0  0  0  0  0  0  0  0  0  0  0  0
  1  7  4  0  0  0  0
  1  2  4  0  0  0  0
  2  3  1  0  0  0  0
  2  4  4  0  0  0  0
  4  5  4  0  0  0  0
  5  6  4  0  0  0  0
  6  7  4  0  0  0  0
  7  8  1  0  0  0  0
  6  9  4  0  0  0  0
  9 10  4  0  0  0  0
  5 11  4  0  0  0  0
 10 11  4  0  0  0  0
M  END
$$$$
