ligand
  PyMOL2.3          3D                             0

 26 28  0  0  0  0  0  0  0  0999 V2000
  128.7050   70.9710   -2.3600 N   0  0  0  0  0  0  0  0  0  0  0  0
  128.4290   70.3890   -3.7070 C   0  0  0  0  0  0  0  0  0  0  0  0
  127.0080   70.6510   -4.1160 C   0  0  0  0  0  0  0  0  0  0  0  0
  126.1930   71.1240   -3.3250 O   0  0  0  0  0  0  0  0  0  0  0  0
  128.6890   68.8850   -3.6960 C   0  0  0  0  0  0  0  0  0  0  0  0
  128.0080   68.1620   -2.5380 C   0  0  0  0  0  0  0  0  0  0  0  0
  128.1620   66.4180   -2.7430 S   0  0  0  0  0  0  0  0  0  0  0  0
  129.8910   66.2240   -3.0330 C   0  0  0  0  0  0  0  0  0  0  0  0
  130.6880   66.2500   -1.7300 C   0  0  0  0  0  0  0  0  0  0  0  0
  130.1360   65.3350   -0.7810 O   0  0  0  0  0  0  0  0  0  0  0  0
  132.1260   65.8270   -1.9830 C   0  0  0  0  0  0  0  0  0  0  0  0
  133.0230   66.7690   -1.3870 O   0  0  0  0  0  0  0  0  0  0  0  0
  132.2740   64.4520   -1.3560 C   0  0  0  0  0  0  0  0  0  0  0  0
  133.3680   64.4130   -0.4330 O   0  0  0  0  0  0  0  0  0  0  0  0
  130.9660   64.1780   -0.6230 C   0  0  0  0  0  0  0  0  0  0  0  0
  126.6220   70.3880   -5.2540 O   0  0  0  0  0  0  0  0  0  0  0  0
  131.2400   59.0180   -1.7470 N   0  0  0  0  0  0  0  0  0  0  0  0
  132.1690   59.8310   -1.2050 C   0  0  0  0  0  0  0  0  0  0  0  0
  131.9600   61.1430   -0.9710 N   0  0  0  0  0  0  0  0  0  0  0  0
  130.7750   61.7370   -1.2770 C   0  0  0  0  0  0  0  0  0  0  0  0
  129.7110   60.9100   -1.8730 C   0  0  0  0  0  0  0  0  0  0  0  0
  130.0140   59.4740   -2.0990 C   0  0  0  0  0  0  0  0  0  0  0  0
  129.0900   58.6480   -2.6450 N   0  0  0  0  0  0  0  0  0  0  0  0
  128.6570   61.7190   -2.0750 N   0  0  0  0  0  0  0  0  0  0  0  0
  129.0120   62.9570   -1.6500 C   0  0  0  0  0  0  0  0  0  0  0  0
  130.2730   62.9760   -1.1740 N   0  0  0  0  0  0  0  0  0  0  0  0
  1  2  1  0  0  0  0
  2  3  1  0  0  0  0
  2  5  1  0  0  0  0
  3  4  4  0  0  0  0
  3 16  4  0  0  0  0
  5  6  1  0  0  0  0
  6  7  1  0  0  0  0
  7  8  1  0  0  0  0
  8  9  1  0  0  0  0
  9 10  1  0  0  0  0
  9 11  1  0  0  0  0
 10 15  1  0  0  0  0
 11 12  1  0  0  0  0
 11 13  1  0  0  0  0
 13 14  1  0  0  0  0
 13 15  1  0  0  0  0
 15 26  1  0  0  0  0
 17 18  4  0  0  0  0
 18 19  4  0  0  0  0
 19 20  4  0  0  0  0
 20 21  4  0  0  0  0
 21 22  4  0  0  0  0
 17 22  4  0  0  0  0
 22 23  1  0  0  0  0
 21 24  4  0  0  0  0
 24 25  4  0  0  0  0
 20 26  4  0  0  0  0
 25 26  4  0  0  0  0
M  END
$$$$
