lig.pdb
 OpenBabel03051820513D

 60 60  0  0  0  0  0  0  0  0999 V2000
    6.2160   -1.3990   -2.0700 C   0  0  0  0  0  0  0  0  0  0  0  0
    5.4230   -0.9230   -3.1680 C   0  0  0  0  0  0  0  0  0  0  0  0
    4.4730    0.0570   -3.0030 C   0  0  0  0  0  0  0  0  0  0  0  0
    4.2300    0.6630   -1.7290 C   0  0  0  0  0  0  0  0  0  0  0  0
    4.9990    0.1630   -0.6270 C   0  0  0  0  0  0  0  0  0  0  0  0
    5.9420   -0.8210   -0.7890 C   0  0  0  0  0  0  0  0  0  0  0  0
    7.1840   -2.3490   -2.2290 C   0  0  0  0  0  0  0  0  0  0  0  0
    7.4900   -2.8870   -3.4290 N   0  0  0  0  0  0  0  0  0  0  0  0
    2.5590    2.1520   -2.5650 N   0  0  0  0  0  0  0  0  0  0  0  0
    3.3160    1.6610   -1.5610 C   0  0  0  0  0  0  0  0  0  0  0  0
    7.9160   -2.8220   -1.1900 N   0  0  0  0  0  0  0  0  0  0  0  0
    3.0910    2.2490   -0.3620 N   0  0  0  0  0  0  0  0  0  0  0  0
    9.3240   -3.2130   -1.2200 C   0  0  0  0  0  0  0  0  0  0  0  0
    1.8860    2.9740    0.0290 C   0  0  0  0  0  0  0  0  0  0  0  0
   10.1550   -2.0370   -0.6820 C   0  0  0  0  0  0  0  0  0  0  0  0
    0.8000    1.9370    0.3710 C   0  0  0  0  0  0  0  0  0  0  0  0
   11.6540   -2.3660   -0.7100 C   0  0  0  0  0  0  0  0  0  0  0  0
   -0.5390    2.5870    0.7640 C   0  0  0  0  0  0  0  0  0  0  0  0
   12.4280   -1.2120   -0.1260 N   0  0  0  0  0  0  0  0  0  0  0  0
   -0.5950    2.8900    2.2400 N   0  0  0  0  0  0  0  0  0  0  0  0
   13.9020   -1.4200   -0.3440 C   0  0  0  0  0  0  0  0  0  0  0  0
   -1.8890    3.5970    2.5420 C   0  0  0  0  0  0  0  0  0  0  0  0
   12.1500   -1.0700    1.3500 C   0  0  0  0  0  0  0  0  0  0  0  0
    0.5500    3.7560    2.6860 C   0  0  0  0  0  0  0  0  0  0  0  0
    5.5640   -1.3370   -4.1620 H   0  0  0  0  0  0  0  0  0  0  0  0
    3.9000    0.3710   -3.8710 H   0  0  0  0  0  0  0  0  0  0  0  0
    4.8440    0.5640    0.3700 H   0  0  0  0  0  0  0  0  0  0  0  0
    6.4880   -1.1560    0.0860 H   0  0  0  0  0  0  0  0  0  0  0  0
    8.2230   -3.5840   -3.5320 H   0  0  0  0  0  0  0  0  0  0  0  0
    1.9410    2.9390   -2.4140 H   0  0  0  0  0  0  0  0  0  0  0  0
    6.9970   -2.6110   -4.2690 H   0  0  0  0  0  0  0  0  0  0  0  0
    2.5800    1.7560   -3.5030 H   0  0  0  0  0  0  0  0  0  0  0  0
    7.4590   -2.9140   -0.2880 H   0  0  0  0  0  0  0  0  0  0  0  0
    3.8140    2.1880    0.3470 H   0  0  0  0  0  0  0  0  0  0  0  0
    9.6360   -3.4510   -2.2410 H   0  0  0  0  0  0  0  0  0  0  0  0
    1.5470    3.6130   -0.7900 H   0  0  0  0  0  0  0  0  0  0  0  0
    9.4810   -4.0930   -0.5860 H   0  0  0  0  0  0  0  0  0  0  0  0
    2.1140    3.6040    0.8890 H   0  0  0  0  0  0  0  0  0  0  0  0
    9.8380   -1.8180    0.3380 H   0  0  0  0  0  0  0  0  0  0  0  0
    1.1470    1.2760    1.1670 H   0  0  0  0  0  0  0  0  0  0  0  0
    9.9620   -1.1500   -1.2900 H   0  0  0  0  0  0  0  0  0  0  0  0
    0.6340    1.3220   -0.5170 H   0  0  0  0  0  0  0  0  0  0  0  0
   11.9980   -2.5130   -1.7360 H   0  0  0  0  0  0  0  0  0  0  0  0
   -1.3600    1.8980    0.5640 H   0  0  0  0  0  0  0  0  0  0  0  0
   11.8750   -3.2550   -0.1170 H   0  0  0  0  0  0  0  0  0  0  0  0
   -0.7020    3.5130    0.2150 H   0  0  0  0  0  0  0  0  0  0  0  0
   12.1440   -0.3400   -0.6120 H   0  0  0  0  0  0  0  0  0  0  0  0
   -0.5690    1.9990    2.7730 H   0  0  0  0  0  0  0  0  0  0  0  0
   14.0800   -1.5410   -1.4140 H   0  0  0  0  0  0  0  0  0  0  0  0
   -1.9330    4.5120    1.9470 H   0  0  0  0  0  0  0  0  0  0  0  0
   14.2070   -2.3140    0.2020 H   0  0  0  0  0  0  0  0  0  0  0  0
   -1.9190    3.8300    3.6080 H   0  0  0  0  0  0  0  0  0  0  0  0
   14.4310   -0.5430    0.0350 H   0  0  0  0  0  0  0  0  0  0  0  0
   -2.7120    2.9360    2.2730 H   0  0  0  0  0  0  0  0  0  0  0  0
   11.0890   -0.8590    1.4860 H   0  0  0  0  0  0  0  0  0  0  0  0
    1.4750    3.1870    2.5750 H   0  0  0  0  0  0  0  0  0  0  0  0
   12.7500   -0.2460    1.7390 H   0  0  0  0  0  0  0  0  0  0  0  0
    0.5640    4.6500    2.0590 H   0  0  0  0  0  0  0  0  0  0  0  0
   12.4160   -2.0060    1.8480 H   0  0  0  0  0  0  0  0  0  0  0  0
    0.3940    4.0250    3.7320 H   0  0  0  0  0  0  0  0  0  0  0  0
  1  6  2  0  0  0  0
  2  3  2  0  0  0  0
  2  1  1  0  0  0  0
  3  4  1  0  0  0  0
  4 10  1  0  0  0  0
  4  5  2  0  0  0  0
  5 27  1  0  0  0  0
  6  5  1  0  0  0  0
  6 28  1  0  0  0  0
  7  1  1  0  0  0  0
  7 11  1  0  0  0  0
  8  7  2  0  0  0  0
  9 30  1  0  0  0  0
  9 10  2  0  0  0  0
 10 12  1  0  0  0  0
 11 33  1  0  0  0  0
 12 14  1  0  0  0  0
 12 34  1  0  0  0  0
 13 11  1  0  0  0  0
 13 15  1  0  0  0  0
 13 37  1  0  0  0  0
 14 16  1  0  0  0  0
 14 38  1  0  0  0  0
 15 39  1  0  0  0  0
 16 18  1  0  0  0  0
 16 40  1  0  0  0  0
 17 15  1  0  0  0  0
 17 19  1  0  0  0  0
 17 45  1  0  0  0  0
 18 20  1  0  0  0  0
 19 23  1  0  0  0  0
 20 22  1  0  0  0  0
 20 24  1  0  0  0  0
 20 48  1  0  0  0  0
 21 19  1  0  0  0  0
 21 53  1  0  0  0  0
 21 51  1  0  0  0  0
 22 52  1  0  0  0  0
 23 55  1  0  0  0  0
 23 57  1  0  0  0  0
 23 59  1  0  0  0  0
 24 60  1  0  0  0  0
 25  2  1  0  0  0  0
 26  3  1  0  0  0  0
 29  8  1  0  0  0  0
 31  8  1  0  0  0  0
 32  9  1  0  0  0  0
 35 13  1  0  0  0  0
 36 14  1  0  0  0  0
 41 15  1  0  0  0  0
 42 16  1  0  0  0  0
 43 17  1  0  0  0  0
 44 18  1  0  0  0  0
 46 18  1  0  0  0  0
 47 19  1  0  0  0  0
 49 21  1  0  0  0  0
 50 22  1  0  0  0  0
 54 22  1  0  0  0  0
 56 24  1  0  0  0  0
 58 24  1  0  0  0  0
M  END
$$$$
