ligand
  PyMOL2.2          3D                             0

 27 28  0  0  0  0  0  0  0  0999 V2000
  -12.6830   37.4790   -2.7110 C   0  0  0  0  0  0  0  0  0  0  0  0
   -8.0340   41.5490   -4.4460 C   0  0  0  0  0  0  0  0  0  0  0  0
   -6.9720   41.5930   -7.2470 C   0  0  0  0  0  0  0  0  0  0  0  0
   -6.2950   42.9110   -6.8660 C   0  0  0  0  0  0  0  0  0  0  0  0
   -4.8720   42.7830   -6.9200 O   0  0  0  0  0  0  0  0  0  0  0  0
   -4.1350   42.5970   -8.3350 P   0  0  0  0  0  0  0  0  0  0  0  0
   -3.2670   44.9870   -9.5560 P   0  0  0  0  0  0  0  0  0  0  0  0
   -5.3650   38.4560   -5.8230 C   0  0  0  0  0  0  0  0  0  0  0  0
  -10.5250   38.0230   -3.8220 N   0  0  0  0  0  0  0  0  0  0  0  0
   -2.5550   42.4130   -8.1430 O   0  5  0  0  0  0  0  0  0  0  0  0
   -2.6110   45.5030   -8.3370 O   0  0  0  0  0  0  0  0  0  0  0  0
   -5.8460   38.4160   -4.5210 C   0  0  0  0  0  0  0  0  0  0  0  0
  -11.2400   37.9840   -2.6870 C   0  0  0  0  0  0  0  0  0  0  0  0
   -4.6580   41.3050   -9.1540 O   0  0  0  0  0  0  0  0  0  0  0  0
   -3.9640   46.1650  -10.3940 O   0  5  0  0  0  0  0  0  0  0  0  0
   -6.7130   39.4150   -4.0760 N   0  0  0  0  0  0  0  0  0  0  0  0
  -10.7000   38.3850   -1.5270 N   0  0  0  0  0  0  0  0  0  0  0  0
   -4.4020   43.8940   -9.2800 O   0  0  0  0  0  0  0  0  0  0  0  0
   -2.1990   44.3380  -10.5470 O   0  0  0  0  0  0  0  0  0  0  0  0
   -7.0830   40.4510   -4.9420 C   0  0  0  0  0  0  0  0  0  0  0  0
   -9.4380   38.8300   -1.4860 C   0  0  0  0  0  0  0  0  0  0  0  0
   -8.9130   39.2230   -0.3300 N   0  0  0  0  0  0  0  0  0  0  0  0
   -6.6000   40.4900   -6.2490 C   0  0  0  0  0  0  0  0  0  0  0  0
   -8.6760   38.8780   -2.6470 C   0  0  0  0  0  0  0  0  0  0  0  0
   -5.7400   39.4860   -6.6770 C   0  0  0  0  0  0  0  0  0  0  0  0
   -9.2750   38.4550   -3.8280 C   0  0  0  0  0  0  0  0  0  0  0  0
   -7.2250   39.3750   -2.6860 C   0  0  0  0  0  0  0  0  0  0  0  0
  1 13  1  0  0  0  0
  3  4  1  0  0  0  0
  4  5  1  0  0  0  0
  5  6  1  0  0  0  0
  6 10  1  0  0  0  0
  6 14  2  0  0  0  0
  6 18  1  0  0  0  0
  7 11  1  0  0  0  0
  7 15  1  0  0  0  0
  7 19  2  0  0  0  0
  8 25  4  0  0  0  0
  9 26  4  0  0  0  0
  8 12  4  0  0  0  0
  9 13  4  0  0  0  0
 13 17  4  0  0  0  0
 12 16  4  0  0  0  0
 16 20  4  0  0  0  0
  7 18  1  0  0  0  0
  2 20  1  0  0  0  0
 17 21  4  0  0  0  0
 21 22  1  0  0  0  0
  3 23  1  0  0  0  0
 20 23  4  0  0  0  0
 21 24  4  0  0  0  0
 24 27  1  0  0  0  0
 23 25  4  0  0  0  0
 24 26  4  0  0  0  0
 16 27  1  0  0  0  0
M  END
$$$$
