ligand
  PyMOL2.2          3D                             0

 27 29  0  0  0  0  0  0  0  0999 V2000
   17.7910   -6.0950  -18.5170 N   0  0  0  0  0  0  0  0  0  0  0  0
   16.4680   -5.6330  -18.0720 C   0  0  0  0  0  0  0  0  0  0  0  0
   16.2140   -6.0860  -16.6310 C   0  0  0  0  0  0  0  0  0  0  0  0
   16.9170   -7.0260  -16.2000 O   0  0  0  0  0  0  0  0  0  0  0  0
   15.4010   -6.2380  -18.9860 C   0  0  0  0  0  0  0  0  0  0  0  0
   13.9980   -5.7280  -18.6470 C   0  0  0  0  0  0  0  0  0  0  0  0
   11.3490   -6.6760  -18.2540 C   0  0  0  0  0  0  0  0  0  0  0  0
   12.6970   -6.7340  -19.5130 Se  0  0  0  0  0  0  0  0  0  0  0  0
   13.2160   -8.5170  -19.4250 C   0  0  0  0  0  0  0  0  0  0  0  0
   12.0800   -9.5000  -19.7110 C   0  0  0  0  0  0  0  0  0  0  0  0
   11.7400   -9.4060  -21.1050 O   0  0  0  0  0  0  0  0  0  0  0  0
   12.6480  -10.9100  -19.5450 C   0  0  0  0  0  0  0  0  0  0  0  0
   11.5880  -11.8650  -19.6140 O   0  0  0  0  0  0  0  0  0  0  0  0
   13.4980  -10.9830  -20.8110 C   0  0  0  0  0  0  0  0  0  0  0  0
   13.7240  -12.3560  -21.1350 O   0  0  0  0  0  0  0  0  0  0  0  0
   12.5100  -10.3910  -21.8170 C   0  0  0  0  0  0  0  0  0  0  0  0
   15.3170   -5.4900  -15.9950 O   0  0  0  0  0  0  0  0  0  0  0  0
   16.2220   -7.2240  -23.5010 N   0  0  0  0  0  0  0  0  0  0  0  0
   15.8940   -7.5280  -22.2570 C   0  0  0  0  0  0  0  0  0  0  0  0
   14.9100   -8.3660  -21.9810 N   0  0  0  0  0  0  0  0  0  0  0  0
   14.2080   -8.9430  -22.9680 C   0  0  0  0  0  0  0  0  0  0  0  0
   14.5220   -8.6470  -24.2870 C   0  0  0  0  0  0  0  0  0  0  0  0
   15.5610   -7.7580  -24.5360 C   0  0  0  0  0  0  0  0  0  0  0  0
   15.8660   -7.4200  -25.7850 N   0  0  0  0  0  0  0  0  0  0  0  0
   13.6920   -9.3350  -25.0630 N   0  0  0  0  0  0  0  0  0  0  0  0
   12.8870  -10.0360  -24.2680 C   0  0  0  0  0  0  0  0  0  0  0  0
   13.1950   -9.8030  -22.9920 N   0  0  0  0  0  0  0  0  0  0  0  0
  1  2  1  0  0  0  0
  2  5  1  0  0  0  0
  2  3  1  0  0  0  0
  3 17  4  0  0  0  0
  3  4  4  0  0  0  0
  5  6  1  0  0  0  0
  6  8  1  0  0  0  0
  7  8  1  0  0  0  0
  8  9  1  0  0  0  0
  9 10  1  0  0  0  0
 10 11  1  0  0  0  0
 10 12  1  0  0  0  0
 12 13  1  0  0  0  0
 12 14  1  0  0  0  0
 14 15  1  0  0  0  0
 11 16  1  0  0  0  0
 14 16  1  0  0  0  0
 16 27  1  0  0  0  0
 18 23  4  0  0  0  0
 18 19  4  0  0  0  0
 19 20  4  0  0  0  0
 20 21  4  0  0  0  0
 21 22  4  0  0  0  0
 21 27  4  0  0  0  0
 22 23  4  0  0  0  0
 23 24  1  0  0  0  0
 22 25  4  0  0  0  0
 25 26  4  0  0  0  0
 26 27  4  0  0  0  0
M  END
$$$$
