ligand
  PyMOL2.2          3D                             0

 14 13  0  0  0  0  0  0  0  0999 V2000
   34.0330   44.8980   39.1870 N   0  0  0  0  0  0  0  0  0  0  0  0
   32.6950   44.3390   39.2930 C   0  0  0  0  0  0  0  0  0  0  0  0
   31.6760   45.4460   39.5420 C   0  0  0  0  0  0  0  0  0  0  0  0
   31.5170   46.3340   38.3130 C   0  0  0  0  0  0  0  0  0  0  0  0
   31.4310   47.7530   38.6450 N   0  0  0  0  0  0  0  0  0  0  0  0
   30.7280   48.6770   37.7710 C   0  0  0  0  0  0  0  0  0  0  0  0
   31.4970   49.9730   37.5390 C   0  0  0  0  0  0  0  0  0  0  0  0
   30.5510   51.1650   37.6320 C   0  0  0  0  0  0  0  0  0  0  0  0
   30.1090   51.3620   39.0780 C   0  0  0  0  0  0  0  0  0  0  0  0
   28.6660   51.2790   39.2240 N   0  0  0  0  0  0  0  0  0  0  0  0
   28.0180   51.9650   40.3340 C   0  0  0  0  0  0  0  0  0  0  0  0
   26.4930   52.0000   40.2600 C   0  0  0  0  0  0  0  0  0  0  0  0
   25.9100   52.7270   41.4730 C   0  0  0  0  0  0  0  0  0  0  0  0
   26.2250   54.1440   41.4090 N   0  0  0  0  0  0  0  0  0  0  0  0
  1  2  1  0  0  0  0
  2  3  1  0  0  0  0
  3  4  1  0  0  0  0
  4  5  1  0  0  0  0
  5  6  1  0  0  0  0
  6  7  1  0  0  0  0
  7  8  1  0  0  0  0
  8  9  1  0  0  0  0
  9 10  1  0  0  0  0
 10 11  1  0  0  0  0
 11 12  1  0  0  0  0
 12 13  1  0  0  0  0
 13 14  1  0  0  0  0
M  END
$$$$
