ligand
  PyMOL2.3          3D                             0

 27 29  0  0  0  0  0  0  0  0999 V2000
   -1.5340   -8.8130   17.8870 N   0  0  0  0  0  0  0  0  0  0  0  0
   -2.0340   -9.2490   16.5970 C   0  0  0  0  0  0  0  0  0  0  0  0
   -2.9390   -8.1720   16.0830 C   0  0  0  0  0  0  0  0  0  0  0  0
   -4.1660   -8.2470   16.3090 O   0  0  0  0  0  0  0  0  0  0  0  0
   -2.8020  -10.5660   16.7380 C   0  0  0  0  0  0  0  0  0  0  0  0
   -1.8420  -11.7670   16.8880 C   0  0  0  0  0  0  0  0  0  0  0  0
   -2.5770  -13.2710   17.0020 S   0  0  0  0  0  0  0  0  0  0  0  0
   -2.6530  -13.9630   15.4940 C   0  0  0  0  0  0  0  0  0  0  0  0
   -4.1220  -13.1020   17.6600 C   0  0  0  0  0  0  0  0  0  0  0  0
   -4.1950  -13.3870   19.1750 C   0  0  0  0  0  0  0  0  0  0  0  0
   -3.1790  -12.7050   19.9290 O   0  0  0  0  0  0  0  0  0  0  0  0
   -5.4690  -12.8770   19.8290 C   0  0  0  0  0  0  0  0  0  0  0  0
   -6.6800  -13.6230   19.5930 O   0  0  0  0  0  0  0  0  0  0  0  0
   -5.0430  -12.8470   21.2760 C   0  0  0  0  0  0  0  0  0  0  0  0
   -4.9430  -14.1740   21.7840 O   0  0  0  0  0  0  0  0  0  0  0  0
   -3.6680  -12.2530   21.1940 C   0  0  0  0  0  0  0  0  0  0  0  0
   -2.4470   -7.1990   15.4630 O   0  0  0  0  0  0  0  0  0  0  0  0
   -5.6590   -7.5270   19.7880 N   0  0  0  0  0  0  0  0  0  0  0  0
   -5.9970   -8.7620   19.3440 C   0  0  0  0  0  0  0  0  0  0  0  0
   -5.4000   -9.8820   19.7850 N   0  0  0  0  0  0  0  0  0  0  0  0
   -4.4390   -9.8510   20.7150 C   0  0  0  0  0  0  0  0  0  0  0  0
   -4.0470   -8.5550   21.2480 C   0  0  0  0  0  0  0  0  0  0  0  0
   -4.6980   -7.3240   20.7430 C   0  0  0  0  0  0  0  0  0  0  0  0
   -4.3650   -6.0680   21.2060 N   0  0  0  0  0  0  0  0  0  0  0  0
   -3.1130   -8.8030   22.1380 N   0  0  0  0  0  0  0  0  0  0  0  0
   -2.8910  -10.1240   22.1780 C   0  0  0  0  0  0  0  0  0  0  0  0
   -3.6910  -10.7640   21.3260 N   0  0  0  0  0  0  0  0  0  0  0  0
  1  2  1  0  0  0  0
  2  3  1  0  0  0  0
  2  5  1  0  0  0  0
  3  4  4  0  0  0  0
  3 17  4  0  0  0  0
  5  6  1  0  0  0  0
  6  7  1  0  0  0  0
  7  8  1  0  0  0  0
  7  9  1  0  0  0  0
  9 10  1  0  0  0  0
 10 11  1  0  0  0  0
 10 12  1  0  0  0  0
 11 16  1  0  0  0  0
 12 13  1  0  0  0  0
 12 14  1  0  0  0  0
 14 15  1  0  0  0  0
 14 16  1  0  0  0  0
 16 27  1  0  0  0  0
 18 19  4  0  0  0  0
 19 20  4  0  0  0  0
 20 21  4  0  0  0  0
 21 22  4  0  0  0  0
 22 23  4  0  0  0  0
 18 23  4  0  0  0  0
 23 24  1  0  0  0  0
 22 25  4  0  0  0  0
 25 26  4  0  0  0  0
 21 27  4  0  0  0  0
 26 27  4  0  0  0  0
M  END
$$$$
