1u8d_lig
 OpenBabel02221317003D

 10 11  0  0  0  0  0  0  0  0999 V2000
   11.8500   10.6800    9.2760 N   0  0  0  0  0  0  0  0  0  0  0  0
   11.4450   12.0170    9.4290 C   0  0  0  0  0  0  0  0  0  0  0  0
   11.0230   12.7940    8.3990 N   0  0  0  0  0  0  0  0  0  0  0  0
   11.0320   12.1440    7.2150 C   0  0  0  0  0  0  0  0  0  0  0  0
   11.4640   10.6970    6.9840 C   0  0  0  0  0  0  0  0  0  0  0  0
   11.8940    9.9360    8.0820 C   0  0  0  0  0  0  0  0  0  0  0  0
   12.2740    8.7740    8.1280 O   0  0  0  0  0  0  0  0  0  0  0  0
   11.3190   10.4520    5.6460 N   0  0  0  0  0  0  0  0  0  0  0  0
   10.8370   11.6010    5.0680 C   0  0  0  0  0  0  0  0  0  0  0  0
   10.6540   12.6370    5.9800 N   0  0  0  0  0  0  0  0  0  0  0  0
  1  2  1  0  0  0  0
  1  6  1  0  0  0  0
  2  3  2  0  0  0  0
  3  4  1  0  0  0  0
  4  5  2  0  0  0  0
  4 10  1  0  0  0  0
  5  6  1  0  0  0  0
  5  8  1  0  0  0  0
  6  7  2  0  0  0  0
  8  9  1  0  0  0  0
  9 10  2  0  0  0  0
M  END
$$$$
