ligand
  PyMOL2.3          3D                             0

 12 13  0  0  0  0  0  0  0  0999 V2000
    6.8180   17.4870    1.3980 C   0  0  0  0  0  0  0  0  0  0  0  0
    5.4060   16.1990    2.7330 C   0  0  0  0  0  0  0  0  0  0  0  0
    7.3630   17.7180    0.2070 N   0  0  0  0  0  0  0  0  0  0  0  0
    4.5850   15.1620    2.9320 N   0  0  0  0  0  0  0  0  0  0  0  0
    5.9850   16.4340    1.5480 N   0  0  0  0  0  0  0  0  0  0  0  0
    7.0830   18.3210    2.4280 N   0  0  0  0  0  0  0  0  0  0  0  0
    5.3720   17.6480    6.1340 N   0  0  0  0  0  0  0  0  0  0  0  0
    6.2380   18.7350    5.9390 C   0  0  0  0  0  0  0  0  0  0  0  0
    6.8260   18.9520    4.6710 N   0  0  0  0  0  0  0  0  0  0  0  0
    6.5300   18.1190    3.6500 C   0  0  0  0  0  0  0  0  0  0  0  0
    5.6600   17.0380    3.8250 C   0  0  0  0  0  0  0  0  0  0  0  0
    5.0700   16.7850    5.0620 C   0  0  0  0  0  0  0  0  0  0  0  0
  1  3  1  0  0  0  0
  2  5  4  0  0  0  0
  2 11  4  0  0  0  0
  2  4  1  0  0  0  0
  1  5  4  0  0  0  0
  1  6  4  0  0  0  0
  7  8  4  0  0  0  0
  8  9  4  0  0  0  0
  9 10  4  0  0  0  0
  6 10  4  0  0  0  0
 10 11  4  0  0  0  0
 11 12  4  0  0  0  0
  7 12  4  0  0  0  0
M  END
$$$$
